# File generated by Flopy version 3.10.0.dev5 on 11/16/2025 at 20:50:30.
BEGIN options
  SAVE_FLOWS
  NEWTON  UNDER_RELAXATION
END options

BEGIN packages
  DIS6  gwf.dis  dis
  IC6  gwf.ic  ic
  NPF6  gwf.npf  npf
  STO6  gwf.sto  sto
  RCH6  gwf.rch  rch_original
  DRN6  gwf_riv.drn  river
  DRN6  gwf_gwd.drn  gwd
  OC6  gwf.oc  oc
END packages

