# File generated by Flopy version 3.10.0.dev5 on 11/14/2025 at 14:51:13.
BEGIN options
  BUDGET  FILEOUT  gwf.cbc
  HEAD  FILEOUT  gwf.hds
END options

BEGIN period  1
  SAVE  HEAD  ALL
  SAVE  BUDGET  ALL
  PRINT  BUDGET  ALL
END period  1

