# File generated by Flopy version 3.10.0.dev5 on 11/16/2025 at 20:50:30.
BEGIN options
  XORIGIN       0.00000000
  YORIGIN       0.00000000
END options

BEGIN dimensions
  NLAY  5
  NROW  41
  NCOL  73
END dimensions

BEGIN griddata
  delr
    CONSTANT    2500.00000000
  delc
    CONSTANT    2500.00000000
  top
    INTERNAL  FACTOR  1.0
       101.28726959     101.28726959     101.28726959     101.23593903     101.23593903     101.23593903     101.23593903     101.23593903     101.23593903     101.23593903     101.02922058     100.70333862     100.70333862     100.70333862     100.70333862      99.61818695      99.61818695      99.61818695      97.70894623      97.70894623      97.52515411      96.95259857      95.87101746      95.09060669      94.44600677      94.44600677      90.56587982      90.18769073      90.18769073      90.18769073      87.03125000      87.03125000      83.31587219      83.31587219      80.09763336      75.64496613      75.64496613      70.97997284      67.19194031      67.00645447      67.00645447      67.00645447      67.00645447      66.26735687      66.26735687      66.26735687      66.26735687      65.70725250      65.70725250      65.70725250      65.70725250      65.15328217      65.15328217      65.15328217      63.83684158      63.83684158      63.83684158      63.83684158      62.15637970      62.15637970      62.15637970      60.18175125      60.18175125      60.18175125      60.18175125      52.93722153      52.93722153      51.20437241      51.20437241      51.20437241      51.20437241      51.20437241      51.20437241
       101.25666046     101.25666046     101.25666046     101.28726959     101.28726959     101.28726959     101.23593903     101.23593903     101.23593903     101.23593903     101.23593903     101.02922058     101.02922058     100.70333862     100.70333862     100.61952209      99.61818695      99.61818695      99.06137085      97.70894623      97.52515411      96.95259857      95.87101746      95.09060669      94.44600677      94.44600677      90.56587982      90.18769073      90.18769073      87.03125000      87.03125000      83.31587219      83.31587219      80.09763336      75.64496613      75.64496613      70.97997284      70.97997284      67.19194031      67.00645447      67.00645447      67.00645447      67.00645447      66.26735687      66.26735687      66.26735687      65.70725250      65.70725250      65.70725250      65.15328217      65.15328217      65.15328217      65.15328217      63.83684158      63.83684158      63.83684158      62.15637970      62.15637970      62.15637970      60.18175125      60.18175125      60.18175125      60.18175125      52.93722153      52.93722153      52.93722153      51.20437241      51.20437241      51.20437241      51.20437241      51.20437241      51.20437241      51.20437241
       101.25666046     101.25666046     101.25666046     101.25666046     101.25666046     101.28726959     101.28726959     101.28726959     101.23593903     101.23593903     101.23593903     101.23593903     101.02922058     101.02922058     100.70333862     100.61952209     100.14676666      99.58812714      99.11627960      98.42934990      97.62367058      96.83317184      95.90957642      94.87867737      93.56759834      92.06045723      90.64696693      90.18769073      87.03125000      87.03125000      83.31587219      83.31587219      80.09763336      75.64496613      75.64496613      70.97997284      70.97997284      67.70229340      67.19194031      67.00645447      67.00645447      67.00645447      66.26735687      66.26735687      66.26735687      65.70725250      65.70725250      65.70725250      65.15328217      65.15328217      65.15328217      63.83684158      63.83684158      63.83684158      63.83684158      62.15637970      62.15637970      62.15637970      60.18175125      60.18175125      60.18175125      60.18175125      52.93722153      52.93722153      52.93722153      51.20437241      51.20437241      51.20437241      51.20437241      51.20437241      51.20437241      51.20437241      51.20437241
       101.17488098     101.22142792     101.22142792     101.25666046     101.25666046     101.25666046     101.25666046     101.25666046     101.28726959     101.28726959     101.28726959     101.23593903     101.23593903     101.13008118     100.87362099     100.54894829     100.12549973      99.59874535      98.99747658      98.29612160      97.50144577      96.62666512      95.63648796      94.51799202      93.21659851      91.74962616      90.17319870      88.39156342      86.45440674      84.25304794      82.04062843      80.09763336      76.24244690      75.64496613      71.40554810      70.97997284      70.97997284      67.70229340      67.19194031      67.00645447      67.00645447      67.00645447      66.26735687      66.26735687      65.70725250      65.70725250      65.70725250      65.15328217      65.15328217      65.15328217      63.83684158      63.83684158      63.83684158      62.15637970      62.15637970      62.15637970      60.18175125      60.18175125      60.18175125      60.18175125      59.30734634      52.93722153      52.93722153      52.93722153      51.20437241      51.20437241      51.20437241      51.20437241      51.20437241      51.20437241      51.20437241      51.20437241      50.16458130
       101.09845734     101.13024139     101.13024139     101.17488098     101.17488098     101.22142792     101.22142792     101.25666046     101.25666046     101.25666046     101.26985931     101.27477264     101.18500137     100.99054337     100.70031929     100.32471466      99.86116219      99.30760956      98.67332268      97.94587135      97.12798691      96.20903587      95.17485809      94.00618935      92.68061066      91.19332123      89.54513359      87.71474266      85.69344902      83.48107147      81.11877060      78.59242058      76.04472542      73.49691200      71.51001549      70.97997284      68.26151276      67.70229340      67.19194031      67.00645447      67.00645447      66.32443237      66.26735687      65.70725250      65.70725250      65.70725250      65.15328217      65.15328217      64.65097809      63.83684158      63.83684158      63.83684158      62.15637970      62.15637970      62.15637970      60.18175125      60.18175125      60.18175125      60.18175125      59.30734634      52.93722153      52.93722153      52.93722153      51.20437241      51.20437241      51.20437241      51.20437241      51.20437241      51.20437241      51.20437241      51.20437241      50.16458130      48.97345734
       101.11743927     101.09039307     101.09039307     101.09845734     101.09845734     101.13024139     101.13024139     101.17488098     101.22142792     101.22142792     101.21371651     101.11575508     100.92580605     100.65481377     100.30105782      99.87546921      99.36923981      98.78503799      98.12035370      97.37088013      96.52854538      95.58351326      94.52036858      93.32313919      91.97274780      90.45701790      88.75969696      86.86601830      84.76544380      82.47023201      79.98528862      77.38485336      74.80549049      72.44614410      70.52725601      69.03093910      68.01521683      67.39471436      67.01185989      66.73127365      66.45563507      66.24124908      65.88309479      65.70725250      65.15328217      65.15328217      64.65097809      63.83684158      63.83684158      63.83684158      62.15637970      62.15637970      62.15637970      60.18175125      60.18175125      60.18175125      60.18175125      59.30734634      58.35778427      52.93722153      52.93722153      52.93722153      51.20437241      51.20437241      51.20437241      51.20437241      51.20437241      51.20437241      51.20437241      50.16458130      48.97345734      48.97345734      47.71946335
       101.72914124     101.72914124     101.19243622     101.11743927     101.11743927     101.09039307     101.09039307     101.09845734     101.13024139     101.09253693     100.96558762     100.74442863     100.45031166     100.08860207      99.66962051      99.18452072      98.64039993      98.02343941      97.33522415      96.56623459      95.70754433      94.74692154      93.66992760      92.45775986      91.09206963      89.55267143      87.81788063      85.86591911      83.68199921      81.25483322      78.59710503      75.74568367      72.95339584      70.47893715      68.69462585      67.57619286      66.88293457      66.53072929      66.31436539      66.16305923      66.02490997      65.86418152      65.64310837      65.35966492      64.99370956      64.53422356      63.83684158      63.83684158      63.17837143      62.15637970      62.15637970      61.36823273      60.18175125      60.18175125      60.18175125      59.30734634      58.35778427      58.35778427      52.93722153      52.93722153      52.93722153      51.20437241      51.20437241      51.20437241      51.20437241      51.20437241      51.20437241      50.16458130      48.97345734      48.97345734      47.71946335      47.71946335      47.71946335
       102.49778748     101.72914124     101.72914124     101.72914124     101.72914124     101.19243622     101.11743927     101.11743927     101.02107620     100.81490517     100.49254417     100.13179016      99.71706009      99.26927376      98.77883530      98.24378014      97.65771484      97.01585007      96.30702019      95.52518082      94.65980339      93.69690704      92.62041664      91.41017532      90.04363441      88.49538803      86.73868561      84.74321747      82.47189331      79.89788437      76.97715950      73.71625710      70.26810074      67.33978844      65.78948021      65.20637703      65.11129761      65.11494446      65.17089653      65.21830177      65.23344040      65.16856003      65.03817177      64.81122780      64.49567413      64.06546211      63.54226971      62.93868256      62.15637970      62.15637970      61.36823273      60.18175125      60.18175125      59.30734634      59.30734634      58.35778427      58.35778427      52.93722153      52.93722153      52.93722153      51.20437241      51.20437241      51.20437241      51.20437241      51.20437241      50.16458130      50.16458130      48.97345734      47.71946335      47.71946335      47.71946335      47.71946335      47.71946335
       102.49778748     102.49778748     102.49778748     102.49778748     101.72914124     101.72914124     101.33309174     101.18410110     100.77330971     100.29827499      99.77942848      99.24015236      98.70773125      98.16464233      97.61276817      97.03219795      96.41285706      95.74501419      95.02383995      94.23825264      93.37760353      92.42623901      91.36630440      90.17813873      88.83038330      87.29631805      85.53929138      83.51897430      81.18855286      78.47635269      75.28614998      71.45097733      66.89158440      61.93691254      61.29795265      62.15907764      62.76666546      63.26369381      63.66489506      63.94240761      64.11127281      64.18112755      64.13102150      63.98573589      63.72699642      63.36891937      62.90994358      62.34495735      61.69836235      60.95019436      60.19043827      59.30734634      59.30734634      58.35778427      58.35778427      55.99590683      52.93722153      52.93722153      52.93722153      51.20437241      51.20437241      51.20437241      51.20437241      50.16458130      50.16458130      48.97345734      47.71946335      47.71946335      47.71946335      47.71946335      47.71946335      47.71946335      47.71946335
       103.05901337     103.05901337     102.76670074     102.76670074     102.49778748     102.34726715     101.66687775     101.02202225     100.29438972      99.50822067      98.73453331      98.02586365      97.37103462      96.75948334      96.15128899      95.53144646      94.88246918      94.19923210      93.47178650      92.69114876      91.84861183      90.92341232      89.90180779      88.75359154      87.45526123      85.95997238      84.24006844      82.23615265      79.89166641      77.11832047      73.77708435      69.60569000      63.94844246      55.76970863      56.45668411      58.73924446      60.14219952      61.13223362      61.86081409      62.38502598      62.71973324      62.90452766      62.94859219      62.87054729      62.68211365      62.38836861      61.99581146      61.50372314      60.92880535      60.26144123      59.52649879      58.69809628      57.86115646      57.69561386      55.99590683      53.80909348      52.93722153      52.93722153      51.20437241      51.20437241      51.20437241      50.16458130      50.16458130      48.97345734      47.71946335      47.71946335      47.71946335      47.71946335      47.71946335      47.71946335      44.04087067      44.04087067      44.04087067
       103.61625671     103.61625671     103.35204315     103.35204315     102.95955658     102.38430977     101.59584236     100.62763977      99.55579758      98.39835548      97.32070160      96.42038536      95.67645264      95.00958252      94.36967278      93.72187996      93.05449867      92.35856438      91.63141632      90.86761856      90.05379105      89.17827606      88.21462631      87.14025497      85.90940475      84.49736977      82.84718132      80.91390800      78.62964058      75.90336227      72.61277580      68.56877708      63.50837231      57.36212349      53.83539009      55.58083439      57.40794277      58.82580757      59.87263203      60.60458279      61.08473301      61.37210083      61.49460316      61.48059273      61.34763050      61.11339188      60.77982140      60.36144352      59.85496330      59.27753830      58.61298561      57.85740566      56.95673752      55.89697266      54.68847561      53.69454193      52.95456886      51.76757050      51.20437241      51.20437241      50.16458130      48.97345734      48.97345734      47.71946335      47.71946335      47.71946335      47.71946335      44.04087067      44.04087067      44.04087067      40.99962997      40.99962997      40.99962997
       104.07053375     104.07053375     103.71134949     103.65130424     103.17403984     102.41515160     101.38834572     100.07860565      98.51792908      96.85832214      95.37193108      94.32301140      93.55764008      92.90015221      92.25652504      91.59276962      90.90685654      90.20214653      89.48069191      88.73991203      87.97240067      87.15719223      86.28787231      85.30802155      84.20502281      82.90736389      81.38240623      79.56615067      77.40531158      74.83680725      71.77275276      68.08196068      63.81030083      58.89402199      54.06373978      52.24472141      54.67227364      56.48541260      57.77069473      58.65035152      59.23408699      59.59186363      59.77260780      59.80786324      59.72166348      59.52906418      59.25089359      58.89444637      58.46283054      57.96314716      57.38472176      56.72308064      55.95870781      55.07984924      54.15186882      53.23578262      52.32799721      51.36640263      50.39217091      49.29340744      48.97345734      47.71946335      47.71946335      46.88979721      46.88979721      44.04087067      44.04087067      44.04087067      40.99962997      40.99962997      40.99962997      40.99962997      40.99962997
       104.34490204     104.34490204     104.34490204     103.99971390     103.35825729     102.41401863     101.13122940      99.45539093      97.37352180      94.81779861      92.58437920      91.57152557      90.99964523      90.43496132      89.81321526      89.13122368      88.42135048      87.70345306      86.98921204      86.27788544      85.56473732      84.84913254      84.08530045      83.25979996      82.31165314      81.18570900      79.81398010      78.18522072      76.21021652      73.86469841      71.08001328      67.83057594      64.15320873      60.14809799      56.04084587      52.08825302      52.21159172      54.22836876      55.62506390      56.57044983      57.19331551      57.57983303      57.78432751      57.84369850      57.78366852      57.62853336      57.39220905      57.09198284      56.73100376      56.31635189      55.83115292      55.28710365      54.64621353      53.94098473      53.15955830      52.33849335      51.46964073      50.54907513      49.55514622      48.46643066      47.33285522      46.88979721      45.84745407      44.04087067      44.04087067      44.04087067      40.99962997      40.99962997      40.99962997      40.99962997      36.22415924      36.22415924      36.22415924
       104.82328033     104.82328033     104.72742271     104.27540016     103.51413155     102.42707825     100.95470619      98.98778152      96.32744217      92.27490044      88.12082481      88.13525391      88.08778763      87.67280579      87.06546021      86.33447075      85.56327629      84.82860947      84.12285614      83.44272423      82.80158806      82.18455315      81.60182190      80.96770096      80.22504425      79.31672287      78.17651176      76.73827744      75.00009537      72.89978790      70.45022011      67.57984734      64.40588951      60.89731216      57.23904800      53.41691399      50.13888931      52.14694214      53.48764992      54.37707710      54.95536613      55.32055092      55.51646137      55.57577991      55.52199078      55.38056946      55.17603493      54.92004967      54.63383484      54.30193329      53.93390560      53.50380325      53.00880527      52.43599510      51.78062916      51.05238628      50.25157547      49.36743641      48.39018345      47.30707264      46.10150814      44.65957355      42.94796753      42.94796753      40.99962997      40.99962997      39.85358047      39.85358047      36.22415924      36.22415924      36.22415924      36.22415924      34.95113373
       105.29252625     105.29252625     105.07166862     104.53722954     103.70035744     102.51485062     100.93287277      98.85268974      96.05740547      92.17864227      87.69341087      84.86111069      85.20700455      84.67776489      84.07396507      83.19430161      82.27869034      81.54077148      80.84311104      80.17084503      79.60418701      79.12045288      78.74215126      78.40900612      77.94936943      77.30520248      76.41631508      75.26084709      73.75676727      71.95106697      69.78251076      67.27908134      64.46515846      61.41028118      58.07873726      54.53338909      50.56323338      50.24321365      51.36132240      52.04538250      52.49066639      52.78688240      52.94829082      52.98187828      52.90969467      52.75977516      52.56580830      52.35066128      52.12762928      51.90301323      51.65494633      51.37041283      51.02014446      50.58506584      50.04560375      49.41970158      48.68115616      47.84344578      46.88991833      45.82005310      44.61515903      43.25593567      41.72838211      40.14879990      38.48136902      38.48136902      36.22415924      36.22415924      36.22415924      34.95113373      33.47934341      29.29211807      29.29211807
       105.89523315     105.89523315     105.40874290     104.80497169     103.90668869     102.68090248     101.08346939      99.04924202      96.51821709      93.37776566      90.02374649      86.65046310      84.21501923      82.08333206      81.00948524      79.68819046      78.32106209      77.91747665      77.14462852      76.30382919      75.93794250      75.48852348      75.50619698      75.55095482      75.46549797      75.17485237      74.58961105      73.70253944      72.47670174      70.92067337      69.06289101      66.86081314      64.39575195      61.67090988      58.69110394      55.46007824      51.94884109      49.02124977      49.15486431      49.47347736      49.71229553      49.93727303      50.05569839      50.03948307      49.91447830      49.72458363      49.51723385      49.32637024      49.17366123      49.06250095      48.98077869      48.85044193      48.67329884      48.38218403      47.97821045      47.43833733      46.77588844      45.98149776      45.06100845      44.00960636      42.82731724      41.50676441      40.04931736      38.44771481      36.58585835      34.95113373      34.95113373      33.47934341      33.47934341      29.29211807      29.29211807      29.29211807      29.29211807
       106.18386078     106.09337234     105.69232941     105.04823685     104.12852859     102.90418625     101.35292625      99.45505905      97.18305969      94.59736633      91.79848671      89.09489441      86.68756104      84.54389763      82.72404861      81.04841423      79.29547501      77.48893738      75.88121796      73.94332695      72.48064995      71.27834129      71.78060722      72.42829323      72.82909393      72.94762230      72.68759155      72.09363174      71.13545609      69.86028099      68.23641014      66.34649467      64.16407299      61.74716568      59.09328651      56.22303963      53.12663555      49.96133327      47.49906731      46.71145630      46.39132977      46.72998524      46.83437634      46.71594143      46.50298119      46.21604347      45.96657467      45.76983643      45.68582726      45.73058319      45.84876156      45.94029331      45.95959663      45.84778118      45.56966019      45.14195251      44.54358101      43.79217720      42.89442348      41.86286736      40.70293713      39.41753292      38.01075649      36.47838020      34.81149101      33.02857494      31.85237312      29.29211807      29.29211807      27.88856888      27.88856888      23.74958992      23.74958992
       106.38780212     106.28473282     105.90569496     105.25918388     104.34261703     103.14544106     101.66307831      99.88550758      97.85799217      95.57631493      93.19166374      90.80578613      88.54991722      86.45367432      84.51593399      82.68107414      80.86625481      79.06352615      77.28759003      75.47845650      73.68853378      71.76864052      69.68404770      68.83906937      70.06088066      70.67301559      70.79194832      70.46696854      69.76879692      68.70291328      67.33580971      65.67012405      63.76424503      61.60991287      59.26731968      56.74836254      54.13352966      51.51929760      49.11567593      46.97022629      44.88787651      43.58854485      43.37361622      42.91806221      42.67999268      42.13375854      41.84804630      41.57053185      41.52027321      41.81072521      42.24319935      42.62580872      42.90377903      42.98764992      42.86367226      42.52814865      41.99322224      41.26952744      40.38468933      39.36008358      38.21358776      36.95529270      35.59804726      34.13181210      32.56412792      30.85545015      28.98723173      27.08230829      26.27565956      23.74958992      23.74958992      20.11955261      20.11955261
       106.51152039     106.44458580     106.06975746     105.42697144     104.52304840     103.36063194     101.94179153     100.29001808      98.41606903      96.36398315      94.20282173      92.02139282      89.87727928      87.81737328      85.84416389      83.93562698      82.06569099      80.21359825      78.37561226      76.52923584      74.65402031      72.70726967      70.66285515      68.53519058      67.35434341      68.50755692      68.91226578      68.83775520      68.34098625      67.50465202      66.32471466      64.87486649      63.17634773      61.25595570      59.16733265      56.94766235      54.63448906      52.35406685      50.15655231      48.08479881      46.08121204      44.13826370      42.38251305      40.55573368      39.13697720      37.63888931      37.38888931      36.56532669      36.44359779      37.27438068      38.10573864      38.89718533      39.50619698      39.85114098      39.88111877      39.63416004      39.13436413      38.41419601      37.51450157      36.47248363      35.32077885      34.07917786      32.76067066      31.37345839      29.90664387      28.37567806      26.73149920      24.95547199      23.06769323      22.36495781      20.11955261      20.11955261      17.02588463
       106.75563049     106.58150673     106.18514061     105.54264641     104.65299416     103.51958084     102.15748024     100.58428001      98.82418633      96.91029739      94.89596558      92.82848167      90.76277161      88.72740173      86.73714828      84.78899193      82.87523079      80.98397255      79.10294914      77.21981239      75.31646538      73.36755753      71.35187149      69.23885345      66.87929535      66.61311913      67.11062813      67.21284294      66.91229439      66.22430801      65.21866798      63.92282867      62.40632343      60.66845226      58.78980350      56.78177166      54.72100544      52.65092945      50.62906647      48.68186760      46.79855537      44.97424030      43.23463345      41.56203556      39.97246742      38.37827015      36.82707596      35.29757881      33.65045166      32.67286205      33.38682652      34.80891609      35.89457607      36.47599602      36.66532040      36.48322582      35.98430920      35.21776104      34.25226021      33.15917873      31.97678995      30.73328876      29.44179344      28.11675453      26.77671766      25.41179895      24.03121710      22.55325651      21.04777670      19.45707035      17.80286360      17.02588463      15.80568409
       106.79226685     106.63977242     106.23821831     105.59340668     104.71114349     103.59961891     102.27223206     100.75093842      99.06231499      97.22940445      95.29217911      93.29025459      91.26047707      89.23440933      87.22868729      85.24938774      83.29899597      81.37206459      79.46162033      77.55693626      75.64609146      73.71259117      71.73632050      69.69599915      67.55681038      65.48379135      65.28215027      65.64936638      65.45361900      64.88134003      63.98004532      62.82129192      61.42239666      59.83930779      58.10203075      56.25356960      54.35628319      52.45724297      50.58111382      48.76482582      46.99239159      45.27343941      43.59064293      41.95633030      40.36259937      38.79004478      37.23427773      35.68668652      34.09559441      32.46407843      30.77128887      30.77048159      32.20527887      32.96844053      33.26812077      33.12042236      32.56724691      31.66676569      30.57087803      29.36242151      28.11734390      26.84768867      25.56468391      24.29083157      23.06110096      21.92080355      20.79730940      19.66090775      18.51569843      17.35639620      16.25615501      15.47999215      15.49600315
       106.78748322     106.63181114     106.22139359     105.57012367     104.68689537     103.58283424     102.27187157     100.77410698      99.11571312      97.31775665      95.41015053      93.42810631      91.40471268      89.36892319      87.33735657      85.32444191      83.33704758      81.37924194      79.44279099      77.52723122      75.62164497      73.71533012      71.80087662      69.86112213      67.90367126      65.90527344      64.02777767      64.15428162      63.99373436      63.46045589      62.62196064      61.53482914      60.23953724      58.75035858      57.10754490      55.35914421      53.56702805      51.78592587      50.05447483      48.36123276      46.70307636      45.07305622      43.45208836      41.84497166      40.27072906      38.71003819      37.15675831      35.63949394      34.14012241      32.62993336      31.06258535      29.41195154      28.19294214      29.39407301      29.77205944      29.61400509      28.90640306      27.78192663      26.34334850      24.98013306      23.65744019      22.34347343      21.03505659      19.76813459      18.62618208      17.72286320      16.96737766      16.18413830      15.38748503      14.61146283      13.93295765      13.48880601      13.19070244
       106.74826813     106.56211853     106.13309479     105.46595764     104.57163239     103.46021271     102.14640999     100.64659309      98.98483467      97.18126488      95.26220322      93.26374245      91.21373749      89.14077377      87.06914139      85.01435471      82.98807907      80.99340248      79.03681183      77.11383629      75.22013283      73.34930992      71.49807739      69.67393112      67.85494232      66.03335190      64.23449516      62.78533077      62.52516842      61.94399357      61.10305309      60.04890251      58.82766438      57.40166283      55.78913689      54.08146763      52.32148743      50.63338470      49.02726364      47.47535706      45.94344330      44.41537666      42.85403347      41.22574043      39.70118904      38.17199993      36.53789043      35.11383915      33.69882011      32.38576031      30.98392057      29.50199270      27.99663019      26.53583336      26.18265390      26.06692457      25.10880423      23.56617546      21.34420919      19.87436485      18.49294376      17.12354159      15.76018453      14.41175842      13.16516995      12.84250140      12.40458751      12.06873679      11.59139585      11.19534731      10.75852776      10.43094683      10.75050068