# File generated by Flopy version 3.10.0.dev5 on 11/16/2025 at 20:50:30.
BEGIN options
  READASARRAYS
  auxiliary  CONCENTRATION
END options

BEGIN period  1
  recharge
    INTERNAL  FACTOR  1.0
    9.50000000E-06  9.50000000E-06  9.50000000E-06  9.50000000E-06  9.50000000E-06  9.50000000E-06  9.50000000E-06  9.50000000E-06  9.50000000E-06  9.50000000E-06  9.50000000E-06  9.50000000E-06  9.50000000E-06  9.50000000E-06  9.50000000E-06  9.50000000E-06  9.50000000E-06  9.50000000E-06  9.50000000E-06  9.50000000E-06  9.50000000E-06  9.50000000E-06  9.50000000E-06  9.50000000E-06  9.50000000E-06  9.50000000E-06  9.50000000E-06  9.50000000E-06  9.50000000E-06  9.50000000E-06  9.50000000E-06  9.50000000E-06  9.50000000E-06  9.50000000E-06  9.50000000E-06  9.50000000E-06  9.50000000E-06  9.50000000E-06  9.50000000E-06  9.50000000E-06  9.50000000E-06  9.50000000E-06  9.50000000E-06  9.50000000E-06  9.50000000E-06  9.50000000E-06  9.50000000E-06  9.50000000E-06  9.50000000E-06  9.50000000E-06  9.50000000E-06  9.50000000E-06  9.50000000E-06  9.50000000E-06  9.50000000E-06  9.50000000E-06  9.50000000E-06  9.50000000E-06  9.50000000E-06  9.50000000E-06  9.50000000E-06  9.50000000E-06  9.50000000E-06  9.50000000E-06  9.50000000E-06  9.50000000E-06  9.50000000E-06  9.50000000E-06  9.50000000E-06  9.50000000E-06  9.50000000E-06  9.50000000E-06  9.50000000E-06
    9.50000000E-06  9.50000000E-06  9.50000000E-06  9.50000000E-06  9.50000000E-06  9.50000000E-06  9.50000000E-06  9.50000000E-06  9.50000000E-06  9.50000000E-06  9.50000000E-06  9.50000000E-06  9.50000000E-06  9.50000000E-06  9.50000000E-06  9.50000000E-06  9.50000000E-06  9.50000000E-06  9.50000000E-06  9.50000000E-06  9.50000000E-06  9.50000000E-06  9.50000000E-06  9.50000000E-06  9.50000000E-06  9.50000000E-06  9.50000000E-06  9.50000000E-06  9.50000000E-06  9.50000000E-06  9.50000000E-06  9.50000000E-06  9.50000000E-06  9.50000000E-06  9.50000000E-06  9.50000000E-06  9.50000000E-06  9.50000000E-06  9.50000000E-06  9.50000000E-06  9.50000000E-06  9.50000000E-06  9.50000000E-06  9.50000000E-06  9.50000000E-06  9.50000000E-06  9.50000000E-06  9.50000000E-06  9.50000000E-06  9.50000000E-06  9.50000000E-06  9.50000000E-06  9.50000000E-06  9.50000000E-06  9.50000000E-06  9.50000000E-06  9.50000000E-06  9.50000000E-06  9.50000000E-06  9.50000000E-06  9.50000000E-06  9.50000000E-06  9.50000000E-06  9.50000000E-06  9.50000000E-06  9.50000000E-06  9.50000000E-06  9.50000000E-06  9.50000000E-06  9.50000000E-06  9.50000000E-06  9.50000000E-06  9.50000000E-06
    9.50000000E-06  9.50000000E-06  9.50000000E-06  9.50000000E-06  9.50000000E-06  9.50000000E-06  9.50000000E-06  9.50000000E-06  9.50000000E-06  9.50000000E-06  9.50000000E-06  9.50000000E-06  9.50000000E-06  9.50000000E-06  9.50000000E-06  9.50000000E-06  9.50000000E-06  9.50000000E-06  9.50000000E-06  9.50000000E-06  9.50000000E-06  9.50000000E-06  9.50000000E-06  9.50000000E-06  9.50000000E-06  9.50000000E-06  9.50000000E-06  9.50000000E-06  9.50000000E-06  9.50000000E-06  9.50000000E-06  9.50000000E-06  9.50000000E-06  9.50000000E-06  9.50000000E-06  9.50000000E-06  9.50000000E-06  9.50000000E-06  9.50000000E-06  9.50000000E-06  9.50000000E-06  9.50000000E-06  9.50000000E-06  9.50000000E-06  9.50000000E-06  9.50000000E-06  9.50000000E-06  9.50000000E-06  9.50000000E-06  9.50000000E-06  9.50000000E-06  9.50000000E-06  9.50000000E-06  9.50000000E-06  9.50000000E-06  9.50000000E-06  9.50000000E-06  9.50000000E-06  9.50000000E-06  9.50000000E-06  9.50000000E-06  9.50000000E-06  9.50000000E-06  9.50000000E-06  9.50000000E-06  9.50000000E-06  9.50000000E-06  9.50000000E-06  9.50000000E-06  9.50000000E-06  9.50000000E-06  9.50000000E-06  9.50000000E-06
    9.50000000E-06  9.50000000E-06  9.50000000E-06  9.50000000E-06  9.50000000E-06  9.50000000E-06  9.50000000E-06  9.50000000E-06  9.50000000E-06  9.50000000E-06  9.50000000E-06  9.50000000E-06  9.50000000E-06  9.50000000E-06  9.50000000E-06  9.50000000E-06  9.50000000E-06  9.50000000E-06  9.50000000E-06  9.50000000E-06  9.50000000E-06  9.50000000E-06  9.50000000E-06  9.50000000E-06  9.50000000E-06  9.50000000E-06  9.50000000E-06  9.50000000E-06  9.50000000E-06  9.50000000E-06  9.50000000E-06  9.50000000E-06  9.50000000E-06  9.50000000E-06  9.50000000E-06  9.50000000E-06  9.50000000E-06  9.50000000E-06  9.50000000E-06  9.50000000E-06  9.50000000E-06  9.50000000E-06  9.50000000E-06  9.50000000E-06  9.50000000E-06  9.50000000E-06  9.50000000E-06  9.50000000E-06  9.50000000E-06  9.50000000E-06  9.50000000E-06  9.50000000E-06  9.50000000E-06  9.50000000E-06  9.50000000E-06  9.50000000E-06  9.50000000E-06  9.50000000E-06  9.50000000E-06  9.50000000E-06  9.50000000E-06  9.50000000E-06  9.50000000E-06  9.50000000E-06  9.50000000E-06  9.50000000E-06  9.50000000E-06  9.50000000E-06  9.50000000E-06  9.50000000E-06  9.50000000E-06  9.50000000E-06  9.50000000E-06
    9.50000000E-06  9.50000000E-06  9.50000000E-06  9.50000000E-06  9.50000000E-06  9.50000000E-06  9.50000000E-06  9.50000000E-06  9.50000000E-06  9.50000000E-06  9.50000000E-06  9.50000000E-06  9.50000000E-06  9.50000000E-06  9.50000000E-06  9.50000000E-06  9.50000000E-06  9.50000000E-06  9.50000000E-06  9.50000000E-06  9.50000000E-06  9.50000000E-06  9.50000000E-06  9.50000000E-06  9.50000000E-06  9.50000000E-06  9.50000000E-06  9.50000000E-06  9.50000000E-06  9.50000000E-06  9.50000000E-06  9.50000000E-06  9.50000000E-06  9.50000000E-06  9.50000000E-06  9.50000000E-06  9.50000000E-06  9.50000000E-06  9.50000000E-06  9.50000000E-06  9.50000000E-06  9.50000000E-06  9.50000000E-06  9.50000000E-06  9.50000000E-06  9.50000000E-06  9.50000000E-06  9.50000000E-06  9.50000000E-06  9.50000000E-06  9.50000000E-06  9.50000000E-06  9.50000000E-06  9.50000000E-06  9.50000000E-06  9.50000000E-06  9.50000000E-06  9.50000000E-06  9.50000000E-06  9.50000000E-06  9.50000000E-06  9.50000000E-06  9.50000000E-06  9.50000000E-06  9.50000000E-06  9.50000000E-06  9.50000000E-06  9.50000000E-06  9.50000000E-06  9.50000000E-06  9.50000000E-06  9.50000000E-06  9.50000000E-06
    9.50000000E-06  9.50000000E-06  9.50000000E-06  9.50000000E-06  9.50000000E-06  9.50000000E-06  9.50000000E-06  9.50000000E-06  9.50000000E-06  9.50000000E-06  9.50000000E-06  9.50000000E-06  9.50000000E-06  9.50000000E-06  9.50000000E-06  9.50000000E-06  9.50000000E-06  9.50000000E-06  9.50000000E-06  9.50000000E-06  9.50000000E-06  9.50000000E-06  9.50000000E-06  9.50000000E-06  9.50000000E-06  9.50000000E-06  9.50000000E-06  9.50000000E-06  9.50000000E-06  9.50000000E-06  9.50000000E-06  9.50000000E-06  9.50000000E-06  9.50000000E-06  9.50000000E-06  9.50000000E-06  9.50000000E-06  9.50000000E-06  9.50000000E-06  9.50000000E-06  9.50000000E-06  9.50000000E-06  9.50000000E-06  9.50000000E-06  9.50000000E-06  9.50000000E-06  9.50000000E-06  9.50000000E-06  9.50000000E-06  9.50000000E-06  9.50000000E-06  9.50000000E-06  9.50000000E-06  9.50000000E-06  9.50000000E-06  9.50000000E-06  9.50000000E-06  9.50000000E-06  9.50000000E-06  9.50000000E-06  9.50000000E-06  9.50000000E-06  9.50000000E-06  9.50000000E-06  9.50000000E-06  9.50000000E-06  9.50000000E-06  9.50000000E-06  9.50000000E-06  9.50000000E-06  9.50000000E-06  9.50000000E-06  9.50000000E-06
    9.50000000E-06  9.50000000E-06  9.50000000E-06  9.50000000E-06  9.50000000E-06  9.50000000E-06  9.50000000E-06  9.50000000E-06  9.50000000E-06  9.50000000E-06  9.50000000E-06  9.50000000E-06  9.50000000E-06  9.50000000E-06  9.50000000E-06  9.50000000E-06  9.50000000E-06  9.50000000E-06  9.50000000E-06  9.50000000E-06  9.50000000E-06  9.50000000E-06  9.50000000E-06  9.50000000E-06  9.50000000E-06  9.50000000E-06  9.50000000E-06  9.50000000E-06  9.50000000E-06  9.50000000E-06  9.50000000E-06  9.50000000E-06  9.50000000E-06  9.50000000E-06  9.50000000E-06  9.50000000E-06  9.50000000E-06  9.50000000E-06  9.50000000E-06  9.50000000E-06  9.50000000E-06  9.50000000E-06  9.50000000E-06  9.50000000E-06  9.50000000E-06  9.50000000E-06  9.50000000E-06  9.50000000E-06  9.50000000E-06  9.50000000E-06  9.50000000E-06  9.50000000E-06  9.50000000E-06  9.50000000E-06  9.50000000E-06  9.50000000E-06  9.50000000E-06  9.50000000E-06  9.50000000E-06  9.50000000E-06  9.50000000E-06  9.50000000E-06  9.50000000E-06  9.50000000E-06  9.50000000E-06  9.50000000E-06  9.50000000E-06  9.50000000E-06  9.50000000E-06  9.50000000E-06  9.50000000E-06  9.50000000E-06  9.50000000E-06
    9.50000000E-06  9.50000000E-06  9.50000000E-06  9.50000000E-06  9.50000000E-06  9.50000000E-06  9.50000000E-06  9.50000000E-06  9.50000000E-06  9.50000000E-06  9.50000000E-06  9.50000000E-06  9.50000000E-06  9.50000000E-06  9.50000000E-06  9.50000000E-06  9.50000000E-06  9.50000000E-06  9.50000000E-06  9.50000000E-06  9.50000000E-06  9.50000000E-06  9.50000000E-06  9.50000000E-06  9.50000000E-06  9.50000000E-06  9.50000000E-06  9.50000000E-06  9.50000000E-06  9.50000000E-06  9.50000000E-06  9.50000000E-06  9.50000000E-06  9.50000000E-06  9.50000000E-06  9.50000000E-06  9.50000000E-06  9.50000000E-06  9.50000000E-06  9.50000000E-06  9.50000000E-06  9.50000000E-06  9.50000000E-06  9.50000000E-06  9.50000000E-06  9.50000000E-06  9.50000000E-06  9.50000000E-06  9.50000000E-06  9.50000000E-06  9.50000000E-06  9.50000000E-06  9.50000000E-06  9.50000000E-06  9.50000000E-06  9.50000000E-06  9.50000000E-06  9.50000000E-06  9.50000000E-06  9.50000000E-06  9.50000000E-06  9.50000000E-06  9.50000000E-06  9.50000000E-06  9.50000000E-06  9.50000000E-06  9.50000000E-06  9.50000000E-06  9.50000000E-06  9.50000000E-06  9.50000000E-06  9.50000000E-06  9.50000000E-06
    9.50000000E-06  9.50000000E-06  9.50000000E-06  9.50000000E-06  9.50000000E-06  9.50000000E-06  9.50000000E-06  9.50000000E-06  9.50000000E-06  9.50000000E-06  9.50000000E-06  9.50000000E-06  9.50000000E-06  9.50000000E-06  9.50000000E-06  9.50000000E-06  9.50000000E-06  9.50000000E-06  9.50000000E-06  9.50000000E-06  9.50000000E-06  9.50000000E-06  9.50000000E-06  9.50000000E-06  9.50000000E-06  9.50000000E-06  9.50000000E-06  9.50000000E-06  9.50000000E-06  9.50000000E-06  9.50000000E-06  9.50000000E-06  9.50000000E-06  9.50000000E-06  9.50000000E-06  9.50000000E-06  9.50000000E-06  9.50000000E-06  9.50000000E-06  9.50000000E-06  9.50000000E-06  9.50000000E-06  9.50000000E-06  9.50000000E-06  9.50000000E-06  9.50000000E-06  9.50000000E-06  9.50000000E-06  9.50000000E-06  9.50000000E-06  9.50000000E-06  9.50000000E-06  9.50000000E-06  9.50000000E-06  9.50000000E-06  9.50000000E-06  9.50000000E-06  9.50000000E-06  9.50000000E-06  9.50000000E-06  9.50000000E-06  9.50000000E-06  9.50000000E-06  9.50000000E-06  9.50000000E-06  9.50000000E-06  9.50000000E-06  9.50000000E-06  9.50000000E-06  9.50000000E-06  9.50000000E-06  9.50000000E-06  9.50000000E-06
    9.50000000E-06  9.50000000E-06  9.50000000E-06  9.50000000E-06  9.50000000E-06  9.50000000E-06  9.50000000E-06  9.50000000E-06  9.50000000E-06  9.50000000E-06  9.50000000E-06  9.50000000E-06  9.50000000E-06  9.50000000E-06  9.50000000E-06  9.50000000E-06  9.50000000E-06  9.50000000E-06  9.50000000E-06  9.50000000E-06  9.50000000E-06  9.50000000E-06  9.50000000E-06  9.50000000E-06  9.50000000E-06  9.50000000E-06  9.50000000E-06  9.50000000E-06  9.50000000E-06  9.50000000E-06  9.50000000E-06  9.50000000E-06  9.50000000E-06  9.50000000E-06  9.50000000E-06  9.50000000E-06  9.50000000E-06  9.50000000E-06  9.50000000E-06  9.50000000E-06  9.50000000E-06  9.50000000E-06  9.50000000E-06  9.50000000E-06  9.50000000E-06  9.50000000E-06  9.50000000E-06  9.50000000E-06  9.50000000E-06  9.50000000E-06  9.50000000E-06  9.50000000E-06  9.50000000E-06  9.50000000E-06  9.50000000E-06  9.50000000E-06  9.50000000E-06  9.50000000E-06  9.50000000E-06  9.50000000E-06  9.50000000E-06  9.50000000E-06  9.50000000E-06  9.50000000E-06  9.50000000E-06  9.50000000E-06  9.50000000E-06  9.50000000E-06  9.50000000E-06  9.50000000E-06  9.50000000E-06  9.50000000E-06  9.50000000E-06
    9.50000000E-06  9.50000000E-06  9.50000000E-06  9.50000000E-06  9.50000000E-06  9.50000000E-06  9.50000000E-06  9.50000000E-06  9.50000000E-06  9.50000000E-06  9.50000000E-06  9.50000000E-06  9.50000000E-06  9.50000000E-06  9.50000000E-06  9.50000000E-06  9.50000000E-06  9.50000000E-06  9.50000000E-06  9.50000000E-06  9.50000000E-06  9.50000000E-06  9.50000000E-06  9.50000000E-06  9.50000000E-06  9.50000000E-06  9.50000000E-06  9.50000000E-06  9.50000000E-06  9.50000000E-06  9.50000000E-06  9.50000000E-06  9.50000000E-06  9.50000000E-06  9.50000000E-06  9.50000000E-06  9.50000000E-06  9.50000000E-06  9.50000000E-06  9.50000000E-06  9.50000000E-06  9.50000000E-06  9.50000000E-06  9.50000000E-06  9.50000000E-06  9.50000000E-06  9.50000000E-06  9.50000000E-06  9.50000000E-06  9.50000000E-06  9.50000000E-06  9.50000000E-06  9.50000000E-06  9.50000000E-06  9.50000000E-06  9.50000000E-06  9.50000000E-06  9.50000000E-06  9.50000000E-06  9.50000000E-06  9.50000000E-06  9.50000000E-06  9.50000000E-06  9.50000000E-06  9.50000000E-06  9.50000000E-06  9.50000000E-06  9.50000000E-06  9.50000000E-06  9.50000000E-06  9.50000000E-06  9.50000000E-06  9.50000000E-06
    9.50000000E-06  9.50000000E-06  9.50000000E-06  9.50000000E-06  9.50000000E-06  9.50000000E-06  9.50000000E-06  9.50000000E-06  9.50000000E-06  9.50000000E-06  9.50000000E-06  9.50000000E-06  9.50000000E-06  9.50000000E-06  9.50000000E-06  9.50000000E-06  9.50000000E-06  9.50000000E-06  9.50000000E-06  9.50000000E-06  9.50000000E-06  9.50000000E-06  9.50000000E-06  9.50000000E-06  9.50000000E-06  9.50000000E-06  9.50000000E-06  9.50000000E-06  9.50000000E-06  9.50000000E-06  9.50000000E-06  9.50000000E-06  9.50000000E-06  9.50000000E-06  9.50000000E-06  9.50000000E-06  9.50000000E-06  9.50000000E-06  9.50000000E-06  9.50000000E-06  9.50000000E-06  9.50000000E-06  9.50000000E-06  9.50000000E-06  9.50000000E-06  9.50000000E-06  9.50000000E-06  9.50000000E-06  9.50000000E-06  9.50000000E-06  9.50000000E-06  9.50000000E-06  9.50000000E-06  9.50000000E-06  9.50000000E-06  9.50000000E-06  9.50000000E-06  9.50000000E-06  9.50000000E-06  9.50000000E-06  9.50000000E-06  9.50000000E-06  9.50000000E-06  9.50000000E-06  9.50000000E-06  9.50000000E-06  9.50000000E-06  9.50000000E-06  9.50000000E-06  9.50000000E-06  9.50000000E-06  9.50000000E-06  9.50000000E-06
    9.50000000E-06  9.50000000E-06  9.50000000E-06  9.50000000E-06  9.50000000E-06  9.50000000E-06  9.50000000E-06  9.50000000E-06  9.50000000E-06  9.50000000E-06  9.50000000E-06  9.50000000E-06  9.50000000E-06  9.50000000E-06  9.50000000E-06  9.50000000E-06  9.50000000E-06  9.50000000E-06  9.50000000E-06  9.50000000E-06  9.50000000E-06  9.50000000E-06  9.50000000E-06  9.50000000E-06  9.50000000E-06  9.50000000E-06  9.50000000E-06  9.50000000E-06  9.50000000E-06  9.50000000E-06  9.50000000E-06  9.50000000E-06  9.50000000E-06  9.50000000E-06  9.50000000E-06  9.50000000E-06  9.50000000E-06  9.50000000E-06  9.50000000E-06  9.50000000E-06  9.50000000E-06  9.50000000E-06  9.50000000E-06  9.50000000E-06  9.50000000E-06  9.50000000E-06  9.50000000E-06  9.50000000E-06  9.50000000E-06  9.50000000E-06  9.50000000E-06  9.50000000E-06  9.50000000E-06  9.50000000E-06  9.50000000E-06  9.50000000E-06  9.50000000E-06  9.50000000E-06  9.50000000E-06  9.50000000E-06  9.50000000E-06  9.50000000E-06  9.50000000E-06  9.50000000E-06  9.50000000E-06  9.50000000E-06  9.50000000E-06  9.50000000E-06  9.50000000E-06  9.50000000E-06  9.50000000E-06  9.50000000E-06  9.50000000E-06
    9.50000000E-06  9.50000000E-06  9.50000000E-06  9.50000000E-06  9.50000000E-06  9.50000000E-06  9.50000000E-06  9.50000000E-06  9.50000000E-06  9.50000000E-06  9.50000000E-06  9.50000000E-06  9.50000000E-06  9.50000000E-06  9.50000000E-06  9.50000000E-06  9.50000000E-06  9.50000000E-06  9.50000000E-06  9.50000000E-06  9.50000000E-06  9.50000000E-06  9.50000000E-06  9.50000000E-06  9.50000000E-06  9.50000000E-06  9.50000000E-06  9.50000000E-06  9.50000000E-06  9.50000000E-06  9.50000000E-06  9.50000000E-06  9.50000000E-06  9.50000000E-06  9.50000000E-06  9.50000000E-06  9.50000000E-06  9.50000000E-06  9.50000000E-06  9.50000000E-06  9.50000000E-06  9.50000000E-06  9.50000000E-06  9.50000000E-06  9.50000000E-06  9.50000000E-06  9.50000000E-06  9.50000000E-06  9.50000000E-06  9.50000000E-06  9.50000000E-06  9.50000000E-06  9.50000000E-06  9.50000000E-06  9.50000000E-06  9.50000000E-06  9.50000000E-06  9.50000000E-06  9.50000000E-06  9.50000000E-06  9.50000000E-06  9.50000000E-06  9.50000000E-06  9.50000000E-06  9.50000000E-06  9.50000000E-06  9.50000000E-06  9.50000000E-06  9.50000000E-06  9.50000000E-06  9.50000000E-06  9.50000000E-06  9.50000000E-06
    9.50000000E-06  9.50000000E-06  9.50000000E-06  9.50000000E-06  9.50000000E-06  9.50000000E-06  9.50000000E-06  9.50000000E-06  9.50000000E-06  9.50000000E-06  9.50000000E-06  9.50000000E-06  9.50000000E-06  9.50000000E-06  9.50000000E-06  9.50000000E-06  9.50000000E-06  9.50000000E-06  9.50000000E-06  9.50000000E-06  9.50000000E-06  9.50000000E-06  9.50000000E-06  9.50000000E-06  9.50000000E-06  9.50000000E-06  9.50000000E-06  9.50000000E-06  9.50000000E-06  9.50000000E-06  9.50000000E-06  9.50000000E-06  9.50000000E-06  9.50000000E-06  9.50000000E-06  9.50000000E-06  9.50000000E-06  9.50000000E-06  9.50000000E-06  9.50000000E-06  9.50000000E-06  9.50000000E-06  9.50000000E-06  9.50000000E-06  9.50000000E-06  9.50000000E-06  9.50000000E-06  9.50000000E-06  9.50000000E-06  9.50000000E-06  9.50000000E-06  9.50000000E-06  9.50000000E-06  9.50000000E-06  9.50000000E-06  9.50000000E-06  9.50000000E-06  9.50000000E-06  9.50000000E-06  9.50000000E-06  9.50000000E-06  9.50000000E-06  9.50000000E-06  9.50000000E-06  9.50000000E-06  9.50000000E-06  9.50000000E-06  9.50000000E-06  9.50000000E-06  9.50000000E-06  9.50000000E-06  9.50000000E-06  9.50000000E-06
    9.50000000E-06  9.50000000E-06  9.50000000E-06  9.50000000E-06  9.50000000E-06  9.50000000E-06  9.50000000E-06  9.50000000E-06  9.50000000E-06  9.50000000E-06  9.50000000E-06  9.50000000E-06  9.50000000E-06  9.50000000E-06  9.50000000E-06  9.50000000E-06  9.50000000E-06  9.50000000E-06  9.50000000E-06  9.50000000E-06  9.50000000E-06  9.50000000E-06  9.50000000E-06  9.50000000E-06  9.50000000E-06  9.50000000E-06  9.50000000E-06  9.50000000E-06  9.50000000E-06  9.50000000E-06  9.50000000E-06  9.50000000E-06  9.50000000E-06  9.50000000E-06  9.50000000E-06  9.50000000E-06  9.50000000E-06  9.50000000E-06  9.50000000E-06  9.50000000E-06  9.50000000E-06  9.50000000E-06  9.50000000E-06  9.50000000E-06  9.50000000E-06  9.50000000E-06  9.50000000E-06  9.50000000E-06  9.50000000E-06  9.50000000E-06  9.50000000E-06  9.50000000E-06  9.50000000E-06  9.50000000E-06  9.50000000E-06  9.50000000E-06  9.50000000E-06  9.50000000E-06  9.50000000E-06  9.50000000E-06  9.50000000E-06  9.50000000E-06  9.50000000E-06  9.50000000E-06  9.50000000E-06  9.50000000E-06  9.50000000E-06  9.50000000E-06  9.50000000E-06  9.50000000E-06  9.50000000E-06  9.50000000E-06  9.50000000E-06
    9.50000000E-06  9.50000000E-06  9.50000000E-06  9.50000000E-06  9.50000000E-06  9.50000000E-06  9.50000000E-06  9.50000000E-06  9.50000000E-06  9.50000000E-06  9.50000000E-06  9.50000000E-06  9.50000000E-06  9.50000000E-06  9.50000000E-06  9.50000000E-06  9.50000000E-06  9.50000000E-06  9.50000000E-06  9.50000000E-06  9.50000000E-06  9.50000000E-06  9.50000000E-06  9.50000000E-06  9.50000000E-06  9.50000000E-06  9.50000000E-06  9.50000000E-06  9.50000000E-06  9.50000000E-06  9.50000000E-06  9.50000000E-06  9.50000000E-06  9.50000000E-06  9.50000000E-06  9.50000000E-06  9.50000000E-06  9.50000000E-06  9.50000000E-06  9.50000000E-06  9.50000000E-06  9.50000000E-06  9.50000000E-06  9.50000000E-06  9.50000000E-06  9.50000000E-06  9.50000000E-06  9.50000000E-06  9.50000000E-06  9.50000000E-06  9.50000000E-06  9.50000000E-06  9.50000000E-06  9.50000000E-06  9.50000000E-06  9.50000000E-06  9.50000000E-06  9.50000000E-06  9.50000000E-06  9.50000000E-06  9.50000000E-06  9.50000000E-06  9.50000000E-06  9.50000000E-06  9.50000000E-06  9.50000000E-06  9.50000000E-06  9.50000000E-06  9.50000000E-06  9.50000000E-06  9.50000000E-06  9.50000000E-06  9.50000000E-06
    9.50000000E-06  9.50000000E-06  9.50000000E-06  9.50000000E-06  9.50000000E-06  9.50000000E-06  9.50000000E-06  9.50000000E-06  9.50000000E-06  9.50000000E-06  9.50000000E-06  9.50000000E-06  9.50000000E-06  9.50000000E-06  9.50000000E-06  9.50000000E-06  9.50000000E-06  9.50000000E-06  9.50000000E-06  9.50000000E-06  9.50000000E-06  9.50000000E-06  9.50000000E-06  9.50000000E-06  9.50000000E-06  9.50000000E-06  9.50000000E-06  9.50000000E-06  9.50000000E-06  9.50000000E-06  9.50000000E-06  9.50000000E-06  9.50000000E-06  9.50000000E-06  9.50000000E-06  9.50000000E-06  9.50000000E-06  9.50000000E-06  9.50000000E-06  9.50000000E-06  9.50000000E-06  9.50000000E-06  9.50000000E-06  9.50000000E-06  9.50000000E-06  9.50000000E-06  9.50000000E-06  9.50000000E-06  9.50000000E-06  9.50000000E-06  9.50000000E-06  9.50000000E-06  9.50000000E-06  9.50000000E-06  9.50000000E-06  9.50000000E-06  9.50000000E-06  9.50000000E-06  9.50000000E-06  9.50000000E-06  9.50000000E-06  9.50000000E-06  9.50000000E-06  9.50000000E-06  9.50000000E-06  9.50000000E-06  9.50000000E-06  9.50000000E-06  9.50000000E-06  9.50000000E-06  9.50000000E-06  9.50000000E-06  9.50000000E-06
    9.50000000E-06  9.50000000E-06  9.50000000E-06  9.50000000E-06  9.50000000E-06  9.50000000E-06  9.50000000E-06  9.50000000E-06  9.50000000E-06  9.50000000E-06  9.50000000E-06  9.50000000E-06  9.50000000E-06  9.50000000E-06  9.50000000E-06  9.50000000E-06  9.50000000E-06  9.50000000E-06  9.50000000E-06  9.50000000E-06  9.50000000E-06  9.50000000E-06  9.50000000E-06  9.50000000E-06  9.50000000E-06  9.50000000E-06  9.50000000E-06  9.50000000E-06  9.50000000E-06  9.50000000E-06  9.50000000E-06  9.50000000E-06  9.50000000E-06  9.50000000E-06  9.50000000E-06  9.50000000E-06  9.50000000E-06  9.50000000E-06  9.50000000E-06  9.50000000E-06  9.50000000E-06  9.50000000E-06  9.50000000E-06  9.50000000E-06  9.50000000E-06  9.50000000E-06  9.50000000E-06  9.50000000E-06  9.50000000E-06  9.50000000E-06  9.50000000E-06  9.50000000E-06  9.50000000E-06  9.50000000E-06  9.50000000E-06  9.50000000E-06  9.50000000E-06  9.50000000E-06  9.50000000E-06  9.50000000E-06  9.50000000E-06  9.50000000E-06  9.50000000E-06  9.50000000E-06  9.50000000E-06  9.50000000E-06  9.50000000E-06  9.50000000E-06  9.50000000E-06  9.50000000E-06  9.50000000E-06  9.50000000E-06  9.50000000E-06
    9.50000000E-06  9.50000000E-06  9.50000000E-06  9.50000000E-06  9.50000000E-06  9.50000000E-06  9.50000000E-06  9.50000000E-06  9.50000000E-06  9.50000000E-06  9.50000000E-06  9.50000000E-06  9.50000000E-06  9.50000000E-06  9.50000000E-06  9.50000000E-06  9.50000000E-06  9.50000000E-06  9.50000000E-06  9.50000000E-06  9.50000000E-06  9.50000000E-06  9.50000000E-06  9.50000000E-06  9.50000000E-06  9.50000000E-06  9.50000000E-06  9.50000000E-06  9.50000000E-06  9.50000000E-06  9.50000000E-06  9.50000000E-06  9.50000000E-06  9.50000000E-06  9.50000000E-06  9.50000000E-06  9.50000000E-06  9.50000000E-06  9.50000000E-06  9.50000000E-06  9.50000000E-06  9.50000000E-06  9.50000000E-06  9.50000000E-06  9.50000000E-06  9.50000000E-06  9.50000000E-06  9.50000000E-06  9.50000000E-06  9.50000000E-06  9.50000000E-06  9.50000000E-06  9.50000000E-06  9.50000000E-06  9.50000000E-06  9.50000000E-06  9.50000000E-06  9.50000000E-06  9.50000000E-06  9.50000000E-06  9.50000000E-06  9.50000000E-06  9.50000000E-06  9.50000000E-06  9.50000000E-06  9.50000000E-06  9.50000000E-06  9.50000000E-06  9.50000000E-06  9.50000000E-06  9.50000000E-06  9.50000000E-06  9.50000000E-06
    9.50000000E-06  9.50000000E-06  9.50000000E-06  9.50000000E-06  9.50000000E-06  9.50000000E-06  9.50000000E-06  9.50000000E-06  9.50000000E-06  9.50000000E-06  9.50000000E-06  9.50000000E-06  9.50000000E-06  9.50000000E-06  9.50000000E-06  9.50000000E-06  9.50000000E-06  9.50000000E-06  9.50000000E-06  9.50000000E-06  9.50000000E-06  9.50000000E-06  9.50000000E-06  9.50000000E-06  9.50000000E-06  9.50000000E-06  9.50000000E-06  9.50000000E-06  9.50000000E-06  9.50000000E-06  9.50000000E-06  9.50000000E-06  9.50000000E-06  9.50000000E-06  9.50000000E-06  9.50000000E-06  9.50000000E-06  9.50000000E-06  9.50000000E-06  9.50000000E-06  9.50000000E-06  9.50000000E-06  9.50000000E-06  9.50000000E-06  9.50000000E-06  9.50000000E-06  9.50000000E-06  9.50000000E-06  9.50000000E-06  9.50000000E-06  9.50000000E-06  9.50000000E-06  9.50000000E-06  9.50000000E-06  9.50000000E-06  9.50000000E-06  9.50000000E-06  9.50000000E-06  9.50000000E-06  9.50000000E-06  9.50000000E-06  9.50000000E-06  9.50000000E-06  9.50000000E-06  9.50000000E-06  9.50000000E-06  9.50000000E-06  9.50000000E-06  9.50000000E-06  9.50000000E-06  9.50000000E-06  9.50000000E-06  9.50000000E-06
    9.50000000E-06  9.50000000E-06  9.50000000E-06  9.50000000E-06  9.50000000E-06  9.50000000E-06  9.50000000E-06  9.50000000E-06  9.50000000E-06  9.50000000E-06  9.50000000E-06  9.50000000E-06  9.50000000E-06  9.50000000E-06  9.50000000E-06  9.50000000E-06  9.50000000E-06  9.50000000E-06  9.50000000E-06  9.50000000E-06  9.50000000E-06  9.50000000E-06  9.50000000E-06  9.50000000E-06  9.50000000E-06  9.50000000E-06  9.50000000E-06  9.50000000E-06  9.50000000E-06  9.50000000E-06  9.50000000E-06  9.50000000E-06  9.50000000E-06  9.50000000E-06  9.50000000E-06  9.50000000E-06  9.50000000E-06  9.50000000E-06  9.50000000E-06  9.50000000E-06  9.50000000E-06  9.50000000E-06  9.50000000E-06  9.50000000E-06  9.50000000E-06  9.50000000E-06  9.50000000E-06  9.50000000E-06  9.50000000E-06  9.50000000E-06  9.50000000E-06  9.50000000E-06  9.50000000E-06  9.50000000E-06  9.50000000E-06  9.50000000E-06  9.50000000E-06  9.50000000E-06  9.50000000E-06  9.50000000E-06  9.50000000E-06  9.50000000E-06  9.50000000E-06  9.50000000E-06  9.50000000E-06  9.50000000E-06  9.50000000E-06  9.50000000E-06  9.50000000E-06  9.50000000E-06  9.50000000E-06  9.50000000E-06  9.50000000E-06
    9.50000000E-06  9.50000000E-06  9.50000000E-06  9.50000000E-06  9.50000000E-06  9.50000000E-06  9.50000000E-06  9.50000000E-06  9.50000000E-06  9.50000000E-06  9.50000000E-06  9.50000000E-06  9.50000000E-06  9.50000000E-06  9.50000000E-06  9.50000000E-06  9.50000000E-06  9.50000000E-06  9.50000000E-06  9.50000000E-06  9.50000000E-06  9.50000000E-06  9.50000000E-06  9.50000000E-06  9.50000000E-06  9.50000000E-06  9.50000000E-06  9.50000000E-06  9.50000000E-06  9.50000000E-06  9.50000000E-06  9.50000000E-06  9.50000000E-06  9.50000000E-06  9.50000000E-06  9.50000000E-06  9.50000000E-06  9.50000000E-06  9.50000000E-06  9.50000000E-06  9.50000000E-06  9.50000000E-06  9.50000000E-06  9.50000000E-06  9.50000000E-06  9.50000000E-06  9.50000000E-06  9.50000000E-06  9.50000000E-06  9.50000000E-06  9.50000000E-06  9.50000000E-06  9.50000000E-06  9.50000000E-06  9.50000000E-06  9.50000000E-06  9.50000000E-06  9.50000000E-06  9.50000000E-06  9.50000000E-06  9.50000000E-06  9.50000000E-06  9.50000000E-06  9.50000000E-06  9.50000000E-06  9.50000000E-06  9.50000000E-06  9.50000000E-06  9.50000000E-06  9.50000000E-06  9.50000000E-06  9.50000000E-06  9.50000000E-06
    9.50000000E-06  9.50000000E-06  9.50000000E-06  9.50000000E-06  9.50000000E-06  9.50000000E-06  9.50000000E-06  9.50000000E-06  9.50000000E-06  9.50000000E-06  9.50000000E-06  9.50000000E-06  9.50000000E-06  9.50000000E-06  9.50000000E-06  9.50000000E-06  9.50000000E-06  9.50000000E-06  9.50000000E-06  9.50000000E-06  9.50000000E-06  9.50000000E-06  9.50000000E-06  9.50000000E-06  9.50000000E-06  9.50000000E-06  9.50000000E-06  9.50000000E-06  9.50000000E-06  9.50000000E-06  9.50000000E-06  9.50000000E-06  9.50000000E-06  9.50000000E-06  9.50000000E-06  9.50000000E-06  9.50000000E-06  9.50000000E-06  9.50000000E-06  9.50000000E-06  9.50000000E-06  9.50000000E-06  9.50000000E-06  9.50000000E-06  9.50000000E-06  9.50000000E-06  9.50000000E-06  9.50000000E-06  9.50000000E-06  9.50000000E-06  9.50000000E-06  9.50000000E-06  9.50000000E-06  9.50000000E-06  9.50000000E-06  9.50000000E-06  9.50000000E-06  9.50000000E-06  9.50000000E-06  9.50000000E-06  9.50000000E-06  9.50000000E-06  9.50000000E-06  9.50000000E-06  9.50000000E-06  9.50000000E-06  9.50000000E-06  9.50000000E-06  9.50000000E-06  9.50000000E-06  9.50000000E-06  9.50000000E-06  9.50000000E-06
    9.50000000E-06  9.50000000E-06  9.50000000E-06  9.50000000E-06  9.50000000E-06  9.50000000E-06  9.50000000E-06  9.50000000E-06  9.50000000E-06  9.50000000E-06  9.50000000E-06  9.50000000E-06  9.50000000E-06  9.50000000E-06  9.50000000E-06  9.50000000E-06  9.50000000E-06  9.50000000E-06  9.50000000E-06  9.50000000E-06  9.50000000E-06  9.50000000E-06  9.50000000E-06  9.50000000E-06  9.50000000E-06  9.50000000E-06  9.50000000E-06  9.50000000E-06  9.50000000E-06  9.50000000E-06  9.50000000E-06  9.50000000E-06  9.50000000E-06  9.50000000E-06  9.50000000E-06  9.50000000E-06  9.50000000E-06  9.50000000E-06  9.50000000E-06  9.50000000E-06  9.50000000E-06  9.50000000E-06  9.50000000E-06  9.50000000E-06  9.50000000E-06  9.50000000E-06  9.50000000E-06  9.50000000E-06  9.50000000E-06  9.50000000E-06  9.50000000E-06  9.50000000E-06  9.50000000E-06  9.50000000E-06  9.50000000E-06  9.50000000E-06  9.50000000E-06  9.50000000E-06  9.50000000E-06  9.50000000E-06  9.50000000E-06  9.50000000E-06  9.50000000E-06  9.50000000E-06  9.50000000E-06  9.50000000E-06  9.50000000E-06  9.50000000E-06  9.50000000E-06  9.50000000E-06  9.50000000E-06  9.50000000E-06  9.50000000E-06