# File generated by Flopy version 3.10.0.dev5 on 11/16/2025 at 20:50:30.
BEGIN options
  auxiliary  depth
  AUXDEPTHNAME  depth
END options

BEGIN dimensions
  MAXBOUND  2083
END dimensions

BEGIN period  1
  1 2 23 9.53710175E+01 2.50000000E+07 1.00000000E+00
  1 2 24 9.45906067E+01 2.50000000E+07 1.00000000E+00
  1 3 16 1.00119522E+02 2.50000000E+07 1.00000000E+00
  1 3 17 9.96467667E+01 2.50000000E+07 1.00000000E+00
  1 3 18 9.90881271E+01 2.50000000E+07 1.00000000E+00
  1 3 19 9.86162796E+01 2.50000000E+07 1.00000000E+00
  1 3 20 9.79293499E+01 2.50000000E+07 1.00000000E+00
  1 3 21 9.71236706E+01 2.50000000E+07 1.00000000E+00
  1 3 22 9.63331718E+01 2.50000000E+07 1.00000000E+00
  1 3 23 9.54095764E+01 2.50000000E+07 1.00000000E+00
  1 3 24 9.43786774E+01 2.50000000E+07 1.00000000E+00
  1 3 25 9.30675983E+01 2.50000000E+07 1.00000000E+00
  1 3 26 9.15604572E+01 2.50000000E+07 1.00000000E+00
  1 3 27 9.01469669E+01 2.50000000E+07 1.00000000E+00
  1 3 28 8.96876907E+01 2.50000000E+07 1.00000000E+00
  1 3 29 8.65312500E+01 2.50000000E+07 1.00000000E+00
  1 4 13 1.00735939E+02 2.50000000E+07 1.00000000E+00
  1 4 14 1.00630081E+02 2.50000000E+07 1.00000000E+00
  1 4 15 1.00373621E+02 2.50000000E+07 1.00000000E+00
  1 4 16 1.00048948E+02 2.50000000E+07 1.00000000E+00
  1 4 17 9.96254997E+01 2.50000000E+07 1.00000000E+00
  1 4 18 9.90987453E+01 2.50000000E+07 1.00000000E+00
  1 4 19 9.84974766E+01 2.50000000E+07 1.00000000E+00
  1 4 20 9.77961216E+01 2.50000000E+07 1.00000000E+00
  1 4 21 9.70014458E+01 2.50000000E+07 1.00000000E+00
  1 4 22 9.61266651E+01 2.50000000E+07 1.00000000E+00
  1 4 23 9.51364880E+01 2.50000000E+07 1.00000000E+00
  1 4 24 9.40179920E+01 2.50000000E+07 1.00000000E+00
  1 4 25 9.27165985E+01 2.50000000E+07 1.00000000E+00
  1 4 26 9.12496262E+01 2.50000000E+07 1.00000000E+00
  1 4 27 8.96731987E+01 2.50000000E+07 1.00000000E+00
  1 4 28 8.78915634E+01 2.50000000E+07 1.00000000E+00
  1 4 29 8.59544067E+01 2.50000000E+07 1.00000000E+00
  1 4 30 8.37530479E+01 2.50000000E+07 1.00000000E+00
  1 4 31 8.15406284E+01 2.50000000E+07 1.00000000E+00
  1 4 32 7.95976334E+01 2.50000000E+07 1.00000000E+00
  1 4 33 7.57424469E+01 2.50000000E+07 1.00000000E+00
  1 5 11 1.00769859E+02 2.50000000E+07 1.00000000E+00
  1 5 12 1.00774773E+02 2.50000000E+07 1.00000000E+00
  1 5 13 1.00685001E+02 2.50000000E+07 1.00000000E+00
  1 5 14 1.00490543E+02 2.50000000E+07 1.00000000E+00
  1 5 15 1.00200319E+02 2.50000000E+07 1.00000000E+00
  1 5 16 9.98247147E+01 2.50000000E+07 1.00000000E+00
  1 5 17 9.93611622E+01 2.50000000E+07 1.00000000E+00
  1 5 18 9.88076096E+01 2.50000000E+07 1.00000000E+00
  1 5 19 9.81733227E+01 2.50000000E+07 1.00000000E+00
  1 5 20 9.74458714E+01 2.50000000E+07 1.00000000E+00
  1 5 21 9.66279869E+01 2.50000000E+07 1.00000000E+00
  1 5 22 9.57090359E+01 2.50000000E+07 1.00000000E+00
  1 5 23 9.46748581E+01 2.50000000E+07 1.00000000E+00
  1 5 24 9.35061893E+01 2.50000000E+07 1.00000000E+00
  1 5 25 9.21806107E+01 2.50000000E+07 1.00000000E+00
  1 5 26 9.06933212E+01 2.50000000E+07 1.00000000E+00
  1 5 27 8.90451336E+01 2.50000000E+07 1.00000000E+00
  1 5 28 8.72147427E+01 2.50000000E+07 1.00000000E+00
  1 5 29 8.51934490E+01 2.50000000E+07 1.00000000E+00
  1 5 30 8.29810715E+01 2.50000000E+07 1.00000000E+00
  1 5 31 8.06187706E+01 2.50000000E+07 1.00000000E+00
  1 5 32 7.80924206E+01 2.50000000E+07 1.00000000E+00
  1 5 33 7.55447254E+01 2.50000000E+07 1.00000000E+00
  1 5 34 7.29969120E+01 2.50000000E+07 1.00000000E+00
  1 5 35 7.10100155E+01 2.50000000E+07 1.00000000E+00
  1 5 36 7.04799728E+01 2.50000000E+07 1.00000000E+00
  1 5 37 6.77615128E+01 2.50000000E+07 1.00000000E+00
  1 5 38 6.72022934E+01 2.50000000E+07 1.00000000E+00
  1 5 39 6.66919403E+01 2.50000000E+07 1.00000000E+00
  1 5 40 6.65064545E+01 2.50000000E+07 1.00000000E+00
  1 6 10 1.00721428E+02 2.50000000E+07 1.00000000E+00
  1 6 11 1.00713717E+02 2.50000000E+07 1.00000000E+00
  1 6 12 1.00615755E+02 2.50000000E+07 1.00000000E+00
  1 6 13 1.00425806E+02 2.50000000E+07 1.00000000E+00
  1 6 14 1.00154814E+02 2.50000000E+07 1.00000000E+00
  1 6 15 9.98010578E+01 2.50000000E+07 1.00000000E+00
  1 6 16 9.93754692E+01 2.50000000E+07 1.00000000E+00
  1 6 17 9.88692398E+01 2.50000000E+07 1.00000000E+00
  1 6 18 9.82850380E+01 2.50000000E+07 1.00000000E+00
  1 6 19 9.76203537E+01 2.50000000E+07 1.00000000E+00
  1 6 20 9.68708801E+01 2.50000000E+07 1.00000000E+00
  1 6 21 9.60285454E+01 2.50000000E+07 1.00000000E+00
  1 6 22 9.50835133E+01 2.50000000E+07 1.00000000E+00
  1 6 23 9.40203686E+01 2.50000000E+07 1.00000000E+00
  1 6 24 9.28231392E+01 2.50000000E+07 1.00000000E+00
  1 6 25 9.14727478E+01 2.50000000E+07 1.00000000E+00
  1 6 26 8.99570179E+01 2.50000000E+07 1.00000000E+00
  1 6 27 8.82596970E+01 2.50000000E+07 1.00000000E+00
  1 6 28 8.63660183E+01 2.50000000E+07 1.00000000E+00
  1 6 29 8.42654438E+01 2.50000000E+07 1.00000000E+00
  1 6 30 8.19702320E+01 2.50000000E+07 1.00000000E+00
  1 6 31 7.94852886E+01 2.50000000E+07 1.00000000E+00
  1 6 32 7.68848534E+01 2.50000000E+07 1.00000000E+00
  1 6 33 7.43054905E+01 2.50000000E+07 1.00000000E+00
  1 6 34 7.19461441E+01 2.50000000E+07 1.00000000E+00
  1 6 35 7.00272560E+01 2.50000000E+07 1.00000000E+00
  1 6 36 6.85309391E+01 2.50000000E+07 1.00000000E+00
  1 6 37 6.75152168E+01 2.50000000E+07 1.00000000E+00
  1 6 38 6.68947144E+01 2.50000000E+07 1.00000000E+00
  1 6 39 6.65118599E+01 2.50000000E+07 1.00000000E+00
  1 6 40 6.62312737E+01 2.50000000E+07 1.00000000E+00
  1 6 41 6.59556351E+01 2.50000000E+07 1.00000000E+00
  1 6 42 6.57412491E+01 2.50000000E+07 1.00000000E+00
  1 6 43 6.53830948E+01 2.50000000E+07 1.00000000E+00
  1 6 44 6.52072525E+01 2.50000000E+07 1.00000000E+00
  1 6 45 6.46532822E+01 2.50000000E+07 1.00000000E+00
  1 7 9 1.00630241E+02 2.50000000E+07 1.00000000E+00
  1 7 10 1.00592537E+02 2.50000000E+07 1.00000000E+00
  1 7 11 1.00465588E+02 2.50000000E+07 1.00000000E+00
  1 7 12 1.00244429E+02 2.50000000E+07 1.00000000E+00
  1 7 13 9.99503117E+01 2.50000000E+07 1.00000000E+00
  1 7 14 9.95886021E+01 2.50000000E+07 1.00000000E+00
  1 7 15 9.91696205E+01 2.50000000E+07 1.00000000E+00
  1 7 16 9.86845207E+01 2.50000000E+07 1.00000000E+00
  1 7 17 9.81403999E+01 2.50000000E+07 1.00000000E+00
  1 7 18 9.75234394E+01 2.50000000E+07 1.00000000E+00
  1 7 19 9.68352242E+01 2.50000000E+07 1.00000000E+00
  1 7 20 9.60662346E+01 2.50000000E+07 1.00000000E+00
  1 7 21 9.52075443E+01 2.50000000E+07 1.00000000E+00
  1 7 22 9.42469215E+01 2.50000000E+07 1.00000000E+00
  1 7 23 9.31699276E+01 2.50000000E+07 1.00000000E+00
  1 7 24 9.19577599E+01 2.50000000E+07 1.00000000E+00
  1 7 25 9.05920696E+01 2.50000000E+07 1.00000000E+00
  1 7 26 8.90526714E+01 2.50000000E+07 1.00000000E+00
  1 7 27 8.73178806E+01 2.50000000E+07 1.00000000E+00
  1 7 28 8.53659191E+01 2.50000000E+07 1.00000000E+00
  1 7 29 8.31819992E+01 2.50000000E+07 1.00000000E+00
  1 7 30 8.07548332E+01 2.50000000E+07 1.00000000E+00
  1 7 31 7.80971050E+01 2.50000000E+07 1.00000000E+00
  1 7 32 7.52456837E+01 2.50000000E+07 1.00000000E+00
  1 7 33 7.24533958E+01 2.50000000E+07 1.00000000E+00
  1 7 34 6.99789371E+01 2.50000000E+07 1.00000000E+00
  1 7 35 6.81946259E+01 2.50000000E+07 1.00000000E+00
  1 7 36 6.70761929E+01 2.50000000E+07 1.00000000E+00
  1 7 37 6.63829346E+01 2.50000000E+07 1.00000000E+00
  1 7 38 6.60307293E+01 2.50000000E+07 1.00000000E+00
  1 7 39 6.58143654E+01 2.50000000E+07 1.00000000E+00
  1 7 40 6.56630592E+01 2.50000000E+07 1.00000000E+00
  1 7 41 6.55249100E+01 2.50000000E+07 1.00000000E+00
  1 7 42 6.53641815E+01 2.50000000E+07 1.00000000E+00
  1 7 43 6.51431084E+01 2.50000000E+07 1.00000000E+00
  1 7 44 6.48596649E+01 2.50000000E+07 1.00000000E+00
  1 7 45 6.44937096E+01 2.50000000E+07 1.00000000E+00
  1 7 46 6.40342236E+01 2.50000000E+07 1.00000000E+00
  1 7 47 6.33368416E+01 2.50000000E+07 1.00000000E+00
  1 8 8 1.00617439E+02 2.50000000E+07 1.00000000E+00
  1 8 9 1.00521076E+02 2.50000000E+07 1.00000000E+00
  1 8 10 1.00314905E+02 2.50000000E+07 1.00000000E+00
  1 8 11 9.99925442E+01 2.50000000E+07 1.00000000E+00
  1 8 12 9.96317902E+01 2.50000000E+07 1.00000000E+00
  1 8 13 9.92170601E+01 2.50000000E+07 1.00000000E+00
  1 8 14 9.87692738E+01 2.50000000E+07 1.00000000E+00
  1 8 15 9.82788353E+01 2.50000000E+07 1.00000000E+00
  1 8 16 9.77437801E+01 2.50000000E+07 1.00000000E+00
  1 8 17 9.71577148E+01 2.50000000E+07 1.00000000E+00
  1 8 18 9.65158501E+01 2.50000000E+07 1.00000000E+00
  1 8 19 9.58070202E+01 2.50000000E+07 1.00000000E+00
  1 8 20 9.50251808E+01 2.50000000E+07 1.00000000E+00
  1 8 21 9.41598034E+01 2.50000000E+07 1.00000000E+00
  1 8 22 9.31969070E+01 2.50000000E+07 1.00000000E+00
  1 8 23 9.21204166E+01 2.50000000E+07 1.00000000E+00
  1 8 24 9.09101753E+01 2.50000000E+07 1.00000000E+00
  1 8 25 8.95436344E+01 2.50000000E+07 1.00000000E+00
  1 8 26 8.79953880E+01 2.50000000E+07 1.00000000E+00
  1 8 27 8.62386856E+01 2.50000000E+07 1.00000000E+00
  1 8 28 8.42432175E+01 2.50000000E+07 1.00000000E+00
  1 8 29 8.19718933E+01 2.50000000E+07 1.00000000E+00
  1 8 30 7.93978844E+01 2.50000000E+07 1.00000000E+00
  1 8 31 7.64771595E+01 2.50000000E+07 1.00000000E+00
  1 8 32 7.32162571E+01 2.50000000E+07 1.00000000E+00
  1 8 33 6.97681007E+01 2.50000000E+07 1.00000000E+00
  1 8 34 6.68397884E+01 2.50000000E+07 1.00000000E+00
  1 8 35 6.52894802E+01 2.50000000E+07 1.00000000E+00
  1 8 36 6.47063770E+01 2.50000000E+07 1.00000000E+00
  1 8 37 6.46112976E+01 2.50000000E+07 1.00000000E+00
  1 8 38 6.46149445E+01 2.50000000E+07 1.00000000E+00
  1 8 39 6.46708965E+01 2.50000000E+07 1.00000000E+00
  1 8 40 6.47183018E+01 2.50000000E+07 1.00000000E+00
  1 8 41 6.47334404E+01 2.50000000E+07 1.00000000E+00
  1 8 42 6.46685600E+01 2.50000000E+07 1.00000000E+00
  1 8 43 6.45381718E+01 2.50000000E+07 1.00000000E+00
  1 8 44 6.43112278E+01 2.50000000E+07 1.00000000E+00
  1 8 45 6.39956741E+01 2.50000000E+07 1.00000000E+00
  1 8 46 6.35654621E+01 2.50000000E+07 1.00000000E+00
  1 8 47 6.30422697E+01 2.50000000E+07 1.00000000E+00
  1 8 48 6.24386826E+01 2.50000000E+07 1.00000000E+00
  1 8 49 6.16563797E+01 2.50000000E+07 1.00000000E+00
  1 8 50 6.16563797E+01 2.50000000E+07 1.00000000E+00
  1 9 7 1.00833092E+02 2.50000000E+07 1.00000000E+00
  1 9 8 1.00684101E+02 2.50000000E+07 1.00000000E+00
  1 9 9 1.00273310E+02 2.50000000E+07 1.00000000E+00
  1 9 10 9.97982750E+01 2.50000000E+07 1.00000000E+00
  1 9 11 9.92794285E+01 2.50000000E+07 1.00000000E+00
  1 9 12 9.87401524E+01 2.50000000E+07 1.00000000E+00
  1 9 13 9.82077312E+01 2.50000000E+07 1.00000000E+00
  1 9 14 9.76646423E+01 2.50000000E+07 1.00000000E+00
  1 9 15 9.71127682E+01 2.50000000E+07 1.00000000E+00
  1 9 16 9.65321980E+01 2.50000000E+07 1.00000000E+00
  1 9 17 9.59128571E+01 2.50000000E+07 1.00000000E+00
  1 9 18 9.52450142E+01 2.50000000E+07 1.00000000E+00
  1 9 19 9.45238400E+01 2.50000000E+07 1.00000000E+00
  1 9 20 9.37382526E+01 2.50000000E+07 1.00000000E+00
  1 9 21 9.28776035E+01 2.50000000E+07 1.00000000E+00
  1 9 22 9.19262390E+01 2.50000000E+07 1.00000000E+00
  1 9 23 9.08663044E+01 2.50000000E+07 1.00000000E+00
  1 9 24 8.96781387E+01 2.50000000E+07 1.00000000E+00
  1 9 25 8.83303833E+01 2.50000000E+07 1.00000000E+00
  1 9 26 8.67963181E+01 2.50000000E+07 1.00000000E+00
  1 9 27 8.50392914E+01 2.50000000E+07 1.00000000E+00
  1 9 28 8.30189743E+01 2.50000000E+07 1.00000000E+00
  1 9 29 8.06885529E+01 2.50000000E+07 1.00000000E+00
  1 9 30 7.79763527E+01 2.50000000E+07 1.00000000E+00
  1 9 31 7.47861500E+01 2.50000000E+07 1.00000000E+00
  1 9 32 7.09509773E+01 2.50000000E+07 1.00000000E+00
  1 9 33 6.63915844E+01 2.50000000E+07 1.00000000E+00
  1 9 34 6.14369125E+01 2.50000000E+07 1.00000000E+00
  1 9 35 6.07979527E+01 2.50000000E+07 1.00000000E+00
  1 9 36 6.16590776E+01 2.50000000E+07 1.00000000E+00
  1 9 37 6.22666655E+01 2.50000000E+07 1.00000000E+00
  1 9 38 6.27636938E+01 2.50000000E+07 1.00000000E+00
  1 9 39 6.31648951E+01 2.50000000E+07 1.00000000E+00
  1 9 40 6.34424076E+01 2.50000000E+07 1.00000000E+00
  1 9 41 6.36112728E+01 2.50000000E+07 1.00000000E+00
  1 9 42 6.36811275E+01 2.50000000E+07 1.00000000E+00
  1 9 43 6.36310215E+01 2.50000000E+07 1.00000000E+00
  1 9 44 6.34857359E+01 2.50000000E+07 1.00000000E+00
  1 9 45 6.32269964E+01 2.50000000E+07 1.00000000E+00
  1 9 46 6.28689194E+01 2.50000000E+07 1.00000000E+00
  1 9 47 6.24099436E+01 2.50000000E+07 1.00000000E+00
  1 9 48 6.18449574E+01 2.50000000E+07 1.00000000E+00
  1 9 49 6.11983624E+01 2.50000000E+07 1.00000000E+00
  1 9 50 6.04501944E+01 2.50000000E+07 1.00000000E+00
  1 9 51 5.96904383E+01 2.50000000E+07 1.00000000E+00
  1 9 52 5.88073463E+01 2.50000000E+07 1.00000000E+00
  1 10 5 1.01997787E+02 2.50000000E+07 1.00000000E+00
  1 10 6 1.01847267E+02 2.50000000E+07 1.00000000E+00
  1 10 7 1.01166878E+02 2.50000000E+07 1.00000000E+00
  1 10 8 1.00522022E+02 2.50000000E+07 1.00000000E+00
  1 10 9 9.97943897E+01 2.50000000E+07 1.00000000E+00
  1 10 10 9.90082207E+01 2.50000000E+07 1.00000000E+00
  1 10 11 9.82345333E+01 2.50000000E+07 1.00000000E+00
  1 10 12 9.75258636E+01 2.50000000E+07 1.00000000E+00
  1 10 13 9.68710346E+01 2.50000000E+07 1.00000000E+00
  1 10 14 9.62594833E+01 2.50000000E+07 1.00000000E+00
  1 10 15 9.56512890E+01 2.50000000E+07 1.00000000E+00
  1 10 16 9.50314465E+01 2.50000000E+07 1.00000000E+00
  1 10 17 9.43824692E+01 2.50000000E+07 1.00000000E+00
  1 10 18 9.36992321E+01 2.50000000E+07 1.00000000E+00
  1 10 19 9.29717865E+01 2.50000000E+07 1.00000000E+00
  1 10 20 9.21911488E+01 2.50000000E+07 1.00000000E+00
  1 10 21 9.13486118E+01 2.50000000E+07 1.00000000E+00
  1 10 22 9.04234123E+01 2.50000000E+07 1.00000000E+00
  1 10 23 8.94018078E+01 2.50000000E+07 1.00000000E+00
  1 10 24 8.82535915E+01 2.50000000E+07 1.00000000E+00
  1 10 25 8.69552612E+01 2.50000000E+07 1.00000000E+00
  1 10 26 8.54599724E+01 2.50000000E+07 1.00000000E+00
  1 10 27 8.37400684E+01 2.50000000E+07 1.00000000E+00
  1 10 28 8.17361526E+01 2.50000000E+07 1.00000000E+00
  1 10 29 7.93916664E+01 2.50000000E+07 1.00000000E+00
  1 10 30 7.66183205E+01 2.50000000E+07 1.00000000E+00
  1 10 31 7.32770844E+01 2.50000000E+07 1.00000000E+00
  1 10 32 6.91056900E+01 2.50000000E+07 1.00000000E+00
  1 10 33 6.34484425E+01 2.50000000E+07 1.00000000E+00
  1 10 34 5.52697086E+01 2.50000000E+07 1.00000000E+00
  1 10 35 5.59566841E+01 2.50000000E+07 1.00000000E+00
  1 10 36 5.82392445E+01 2.50000000E+07 1.00000000E+00
  1 10 37 5.96421995E+01 2.50000000E+07 1.00000000E+00
  1 10 38 6.06322336E+01 2.50000000E+07 1.00000000E+00
  1 10 39 6.13608141E+01 2.50000000E+07 1.00000000E+00
  1 10 40 6.18850260E+01 2.50000000E+07 1.00000000E+00
  1 10 41 6.22197332E+01 2.50000000E+07 1.00000000E+00
  1 10 42 6.24045277E+01 2.50000000E+07 1.00000000E+00
  1 10 43 6.24485922E+01 2.50000000E+07 1.00000000E+00
  1 10 44 6.23705473E+01 2.50000000E+07 1.00000000E+00
  1 10 45 6.21821136E+01 2.50000000E+07 1.00000000E+00
  1 10 46 6.18883686E+01 2.50000000E+07 1.00000000E+00
  1 10 47 6.14958115E+01 2.50000000E+07 1.00000000E+00
  1 10 48 6.10037231E+01 2.50000000E+07 1.00000000E+00
  1 10 49 6.04288054E+01 2.50000000E+07 1.00000000E+00
  1 10 50 5.97614412E+01 2.50000000E+07 1.00000000E+00
  1 10 51 5.90264988E+01 2.50000000E+07 1.00000000E+00
  1 10 52 5.81980963E+01 2.50000000E+07 1.00000000E+00
  1 10 53 5.73611565E+01 2.50000000E+07 1.00000000E+00
  1 10 54 5.71956139E+01 2.50000000E+07 1.00000000E+00
  1 11 4 1.02852043E+02 2.50000000E+07 1.00000000E+00
  1 11 5 1.02459557E+02 2.50000000E+07 1.00000000E+00
  1 11 6 1.01884310E+02 2.50000000E+07 1.00000000E+00
  1 11 7 1.01095842E+02 2.50000000E+07 1.00000000E+00
  1 11 8 1.00127640E+02 2.50000000E+07 1.00000000E+00
  1 11 9 9.90557976E+01 2.50000000E+07 1.00000000E+00
  1 11 10 9.78983555E+01 2.50000000E+07 1.00000000E+00
  1 11 11 9.68207016E+01 2.50000000E+07 1.00000000E+00
  1 11 12 9.59203854E+01 2.50000000E+07 1.00000000E+00
  1 11 13 9.51764526E+01 2.50000000E+07 1.00000000E+00
  1 11 14 9.45095825E+01 2.50000000E+07 1.00000000E+00
  1 11 15 9.38696728E+01 2.50000000E+07 1.00000000E+00
  1 11 16 9.32218800E+01 2.50000000E+07 1.00000000E+00
  1 11 17 9.25544987E+01 2.50000000E+07 1.00000000E+00
  1 11 18 9.18585644E+01 2.50000000E+07 1.00000000E+00
  1 11 19 9.11314163E+01 2.50000000E+07 1.00000000E+00
  1 11 20 9.03676186E+01 2.50000000E+07 1.00000000E+00
  1 11 21 8.95537910E+01 2.50000000E+07 1.00000000E+00
  1 11 22 8.86782761E+01 2.50000000E+07 1.00000000E+00
  1 11 23 8.77146263E+01 2.50000000E+07 1.00000000E+00
  1 11 24 8.66402550E+01 2.50000000E+07 1.00000000E+00
  1 11 25 8.54094048E+01 2.50000000E+07 1.00000000E+00
  1 11 26 8.39973698E+01 2.50000000E+07 1.00000000E+00
  1 11 27 8.23471813E+01 2.50000000E+07 1.00000000E+00
  1 11 28 8.04139080E+01 2.50000000E+07 1.00000000E+00
  1 11 29 7.81296406E+01 2.50000000E+07 1.00000000E+00
  1 11 30 7.54033623E+01 2.50000000E+07 1.00000000E+00
  1 11 31 7.21127758E+01 2.50000000E+07 1.00000000E+00
  1 11 32 6.80687771E+01 2.50000000E+07 1.00000000E+00
  1 11 33 6.30083723E+01 2.50000000E+07 1.00000000E+00
  1 11 34 5.68621235E+01 2.50000000E+07 1.00000000E+00
  1 11 35 5.33353901E+01 2.50000000E+07 1.00000000E+00
  1 11 36 5.50808344E+01 2.50000000E+07 1.00000000E+00
  1 11 37 5.69079428E+01 2.50000000E+07 1.00000000E+00
  1 11 38 5.83258076E+01 2.50000000E+07 1.00000000E+00
  1 11 39 5.93726320E+01 2.50000000E+07 1.00000000E+00
  1 11 40 6.01045828E+01 2.50000000E+07 1.00000000E+00
  1 11 41 6.05847330E+01 2.50000000E+07 1.00000000E+00
  1 11 42 6.08721008E+01 2.50000000E+07 1.00000000E+00
  1 11 43 6.09946032E+01 2.50000000E+07 1.00000000E+00
  1 11 44 6.09805927E+01 2.50000000E+07 1.00000000E+00
  1 11 45 6.08476305E+01 2.50000000E+07 1.00000000E+00
  1 11 46 6.06133919E+01 2.50000000E+07 1.00000000E+00
  1 11 47 6.02798214E+01 2.50000000E+07 1.00000000E+00
  1 11 48 5.98614435E+01 2.50000000E+07 1.00000000E+00
  1 11 49 5.93549633E+01 2.50000000E+07 1.00000000E+00
  1 11 50 5.87775383E+01 2.50000000E+07 1.00000000E+00
  1 11 51 5.81129856E+01 2.50000000E+07 1.00000000E+00
  1 11 52 5.73574057E+01 2.50000000E+07 1.00000000E+00
  1 11 53 5.64567375E+01 2.50000000E+07 1.00000000E+00
  1 11 54 5.53969727E+01 2.50000000E+07 1.00000000E+00
  1 11 55 5.41884756E+01 2.50000000E+07 1.00000000E+00
  1 11 56 5.31945419E+01 2.50000000E+07 1.00000000E+00
  1 11 57 5.24545689E+01 2.50000000E+07 1.00000000E+00
  1 11 58 5.12675705E+01 2.50000000E+07 1.00000000E+00
  1 11 59 5.07043724E+01 2.50000000E+07 1.00000000E+00
  1 12 4 1.03151304E+02 2.50000000E+07 1.00000000E+00
  1 12 5 1.02674040E+02 2.50000000E+07 1.00000000E+00
  1 12 6 1.01915152E+02 2.50000000E+07 1.00000000E+00
  1 12 7 1.00888346E+02 2.50000000E+07 1.00000000E+00
  1 12 8 9.95786057E+01 2.50000000E+07 1.00000000E+00
  1 12 9 9.80179291E+01 2.50000000E+07 1.00000000E+00
  1 12 10 9.63583221E+01 2.50000000E+07 1.00000000E+00
  1 12 11 9.48719311E+01 2.50000000E+07 1.00000000E+00
  1 12 12 9.38230114E+01 2.50000000E+07 1.00000000E+00
  1 12 13 9.30576401E+01 2.50000000E+07 1.00000000E+00
  1 12 14 9.24001522E+01 2.50000000E+07 1.00000000E+00
  1 12 15 9.17565250E+01 2.50000000E+07 1.00000000E+00
  1 12 16 9.10927696E+01 2.50000000E+07 1.00000000E+00
  1 12 17 9.04068565E+01 2.50000000E+07 1.00000000E+00
  1 12 18 8.97021465E+01 2.50000000E+07 1.00000000E+00
  1 12 19 8.89806919E+01 2.50000000E+07 1.00000000E+00
  1 12 20 8.82399120E+01 2.50000000E+07 1.00000000E+00
  1 12 21 8.74724007E+01 2.50000000E+07 1.00000000E+00
  1 12 22 8.66571922E+01 2.50000000E+07 1.00000000E+00
  1 12 23 8.57878723E+01 2.50000000E+07 1.00000000E+00
  1 12 24 8.48080215E+01 2.50000000E+07 1.00000000E+00
  1 12 25 8.37050228E+01 2.50000000E+07 1.00000000E+00
  1 12 26 8.24073639E+01 2.50000000E+07 1.00000000E+00
  1 12 27 8.08824062E+01 2.50000000E+07 1.00000000E+00
  1 12 28 7.90661507E+01 2.50000000E+07 1.00000000E+00
  1 12 29 7.69053116E+01 2.50000000E+07 1.00000000E+00
  1 12 30 7.43368073E+01 2.50000000E+07 1.00000000E+00
  1 12 31 7.12727528E+01 2.50000000E+07 1.00000000E+00
  1 12 32 6.75819607E+01 2.50000000E+07 1.00000000E+00
  1 12 33 6.33103008E+01 2.50000000E+07 1.00000000E+00
  1 12 34 5.83940220E+01 2.50000000E+07 1.00000000E+00
  1 12 35 5.35637398E+01 2.50000000E+07 1.00000000E+00
  1 12 36 5.17447214E+01 2.50000000E+07 1.00000000E+00
  1 12 37 5.41722736E+01 2.50000000E+07 1.00000000E+00
  1 12 38 5.59854126E+01 2.50000000E+07 1.00000000E+00
  1 12 39 5.72706947E+01 2.50000000E+07 1.00000000E+00
  1 12 40 5.81503515E+01 2.50000000E+07 1.00000000E+00
  1 12 41 5.87340870E+01 2.50000000E+07 1.00000000E+00
  1 12 42 5.90918636E+01 2.50000000E+07 1.00000000E+00
  1 12 43 5.92726078E+01 2.50000000E+07 1.00000000E+00
  1 12 44 5.93078632E+01 2.50000000E+07 1.00000000E+00
  1 12 45 5.92216635E+01 2.50000000E+07 1.00000000E+00
  1 12 46 5.90290642E+01 2.50000000E+07 1.00000000E+00
  1 12 47 5.87508936E+01 2.50000000E+07 1.00000000E+00
  1 12 48 5.83944464E+01 2.50000000E+07 1.00000000E+00
  1 12 49 5.79628305E+01 2.50000000E+07 1.00000000E+00
  1 12 50 5.74631472E+01 2.50000000E+07 1.00000000E+00
  1 12 51 5.68847218E+01 2.50000000E+07 1.00000000E+00
  1 12 52 5.62230806E+01 2.50000000E+07 1.00000000E+00
  1 12 53 5.54587078E+01 2.50000000E+07 1.00000000E+00
  1 12 54 5.45798492E+01 2.50000000E+07 1.00000000E+00
  1 12 55 5.36518688E+01 2.50000000E+07 1.00000000E+00
  1 12 56 5.27357826E+01 2.50000000E+07 1.00000000E+00
  1 12 57 5.18279972E+01 2.50000000E+07 1.00000000E+00
  1 12 58 5.08664026E+01 2.50000000E+07 1.00000000E+00
  1 12 59 4.98921709E+01 2.50000000E+07 1.00000000E+00
  1 12 60 4.87934074E+01 2.50000000E+07 1.00000000E+00
  1 12 61 4.84734573E+01 2.50000000E+07 1.00000000E+00
  1 13 3 1.03844902E+02 2.50000000E+07 1.00000000E+00
  1 13 4 1.03499714E+02 2.50000000E+07 1.00000000E+00
  1 13 5 1.02858257E+02 2.50000000E+07 1.00000000E+00
  1 13 6 1.01914019E+02 2.50000000E+07 1.00000000E+00
  1 13 7 1.00631229E+02 2.50000000E+07 1.00000000E+00
  1 13 8 9.89553909E+01 2.50000000E+07 1.00000000E+00
  1 13 9 9.68735218E+01 2.50000000E+07 1.00000000E+00
  1 13 10 9.43177986E+01 2.50000000E+07 1.00000000E+00
  1 13 11 9.20843792E+01 2.50000000E+07 1.00000000E+00
  1 13 12 9.10715256E+01 2.50000000E+07 1.00000000E+00
  1 13 13 9.04996452E+01 2.50000000E+07 1.00000000E+00
  1 13 14 8.99349613E+01 2.50000000E+07 1.00000000E+00
  1 13 15 8.93132153E+01 2.50000000E+07 1.00000000E+00
  1 13 16 8.86312237E+01 2.50000000E+07 1.00000000E+00
  1 13 17 8.79213505E+01 2.50000000E+07 1.00000000E+00
  1 13 18 8.72034531E+01 2.50000000E+07 1.00000000E+00
  1 13 19 8.64892120E+01 2.50000000E+07 1.00000000E+00
  1 13 20 8.57778854E+01 2.50000000E+07 1.00000000E+00
  1 13 21 8.50647373E+01 2.50000000E+07 1.00000000E+00
  1 13 22 8.43491325E+01 2.50000000E+07 1.00000000E+00
  1 13 23 8.35853004E+01 2.50000000E+07 1.00000000E+00
  1 13 24 8.27598000E+01 2.50000000E+07 1.00000000E+00
  1 13 25 8.18116531E+01 2.50000000E+07 1.00000000E+00
  1 13 26 8.06857090E+01 2.50000000E+07 1.00000000E+00
  1 13 27 7.93139801E+01 2.50000000E+07 1.00000000E+00
  1 13 28 7.76852207E+01 2.50000000E+07 1.00000000E+00
  1 13 29 7.57102165E+01 2.50000000E+07 1.00000000E+00
  1 13 30 7.33646984E+01 2.50000000E+07 1.00000000E+00
  1 13 31 7.05800133E+01 2.50000000E+07 1.00000000E+00
  1 13 32 6.73305759E+01 2.50000000E+07 1.00000000E+00
  1 13 33 6.36532087E+01 2.50000000E+07 1.00000000E+00
  1 13 34 5.96480980E+01 2.50000000E+07 1.00000000E+00
  1 13 35 5.55408459E+01 2.50000000E+07 1.00000000E+00
  1 13 36 5.15882530E+01 2.50000000E+07 1.00000000E+00
  1 13 37 5.17115917E+01 2.50000000E+07 1.00000000E+00
  1 13 38 5.37283688E+01 2.50000000E+07 1.00000000E+00
  1 13 39 5.51250639E+01 2.50000000E+07 1.00000000E+00
  1 13 40 5.60704498E+01 2.50000000E+07 1.00000000E+00
  1 13 41 5.66933155E+01 2.50000000E+07 1.00000000E+00
  1 13 42 5.70798330E+01 2.50000000E+07 1.00000000E+00
  1 13 43 5.72843275E+01 2.50000000E+07 1.00000000E+00
  1 13 44 5.73436985E+01 2.50000000E+07 1.00000000E+00
  1 13 45 5.72836685E+01 2.50000000E+07 1.00000000E+00
  1 13 46 5.71285334E+01 2.50000000E+07 1.00000000E+00
  1 13 47 5.68922091E+01 2.50000000E+07 1.00000000E+00
  1 13 48 5.65919828E+01 2.50000000E+07 1.00000000E+00
  1 13 49 5.62310038E+01 2.50000000E+07 1.00000000E+00
  1 13 50 5.58163519E+01 2.50000000E+07 1.00000000E+00
  1 13 51 5.53311529E+01 2.50000000E+07 1.00000000E+00
  1 13 52 5.47871037E+01 2.50000000E+07 1.00000000E+00
  1 13 53 5.41462135E+01 2.50000000E+07 1.00000000E+00
  1 13 54 5.34409847E+01 2.50000000E+07 1.00000000E+00
  1 13 55 5.26595583E+01 2.50000000E+07 1.00000000E+00
  1 13 56 5.18384933E+01 2.50000000E+07 1.00000000E+00
  1 13 57 5.09696407E+01 2.50000000E+07 1.00000000E+00
  1 13 58 5.00490751E+01 2.50000000E+07 1.00000000E+00
  1 13 59 4.90551462E+01 2.50000000E+07 1.00000000E+00
  1 13 60 4.79664307E+01 2.50000000E+07 1.00000000E+00
  1 13 61 4.68328552E+01 2.50000000E+07 1.00000000E+00
  1 13 62 4.63897972E+01 2.50000000E+07 1.00000000E+00
  1 14 3 1.04227423E+02 2.50000000E+07 1.00000000E+00
  1 14 4 1.03775400E+02 2.50000000E+07 1.00000000E+00
  1 14 5 1.03014132E+02 2.50000000E+07 1.00000000E+00
  1 14 6 1.01927078E+02 2.50000000E+07 1.00000000E+00
  1 14 7 1.00454706E+02 2.50000000E+07 1.00000000E+00
  1 14 8 9.84877815E+01 2.50000000E+07 1.00000000E+00
  1 14 9 9.58274422E+01 2.50000000E+07 1.00000000E+00
  1 14 10 9.17749004E+01 2.50000000E+07 1.00000000E+00
  1 14 11 8.76208248E+01 2.50000000E+07 1.00000000E+00
  1 14 12 8.76352539E+01 2.50000000E+07 1.00000000E+00
  1 14 13 8.75877876E+01 2.50000000E+07 1.00000000E+00
  1 14 14 8.71728058E+01 2.50000000E+07 1.00000000E+00
  1 14 15 8.65654602E+01 2.50000000E+07 1.00000000E+00
  1 14 16 8.58344707E+01 2.50000000E+07 1.00000000E+00
  1 14 17 8.50632763E+01 2.50000000E+07 1.00000000E+00
  1 14 18 8.43286095E+01 2.50000000E+07 1.00000000E+00
  1 14 19 8.36228561E+01 2.50000000E+07 1.00000000E+00
  1 14 20 8.29427242E+01 2.50000000E+07 1.00000000E+00
  1 14 21 8.23015881E+01 2.50000000E+07 1.00000000E+00
  1 14 22 8.16845531E+01 2.50000000E+07 1.00000000E+00
  1 14 23 8.11018219E+01 2.50000000E+07 1.00000000E+00
  1 14 24 8.04677010E+01 2.50000000E+07 1.00000000E+00
  1 14 25 7.97250443E+01 2.50000000E+07 1.00000000E+00
  1 14 26 7.88167229E+01 2.50000000E+07 1.00000000E+00
  1 14 27 7.76765118E+01 2.50000000E+07 1.00000000E+00
  1 14 28 7.62382774E+01 2.50000000E+07 1.00000000E+00
  1 14 29 7.45000954E+01 2.50000000E+07 1.00000000E+00
  1 14 30 7.23997879E+01 2.50000000E+07 1.00000000E+00
  1 14 31 6.99502201E+01 2.50000000E+07 1.00000000E+00
  1 14 32 6.70798473E+01 2.50000000E+07 1.00000000E+00
  1 14 33 6.39058895E+01 2.50000000E+07 1.00000000E+00
  1 14 34 6.03973122E+01 2.50000000E+07 1.00000000E+00
  1 14 35 5.67390480E+01 2.50000000E+07 1.00000000E+00
  1 14 36 5.29169140E+01 2.50000000E+07 1.00000000E+00
  1 14 37 4.96388893E+01 2.50000000E+07 1.00000000E+00
  1 14 38 5.16469421E+01 2.50000000E+07 1.00000000E+00
  1 14 39 5.29876499E+01 2.50000000E+07 1.00000000E+00
  1 14 40 5.38770771E+01 2.50000000E+07 1.00000000E+00
  1 14 41 5.44553661E+01 2.50000000E+07 1.00000000E+00
  1 14 42 5.48205509E+01 2.50000000E+07 1.00000000E+00
  1 14 43 5.50164614E+01 2.50000000E+07 1.00000000E+00
  1 14 44 5.50757799E+01 2.50000000E+07 1.00000000E+00
  1 14 45 5.50219908E+01 2.50000000E+07 1.00000000E+00
  1 14 46 5.48805695E+01 2.50000000E+07 1.00000000E+00
  1 14 47 5.46760349E+01 2.50000000E+07 1.00000000E+00
  1 14 48 5.44200497E+01 2.50000000E+07 1.00000000E+00
  1 14 49 5.41338348E+01 2.50000000E+07 1.00000000E+00
  1 14 50 5.38019333E+01 2.50000000E+07 1.00000000E+00
  1 14 51 5.34339056E+01 2.50000000E+07 1.00000000E+00
  1 14 52 5.30038033E+01 2.50000000E+07 1.00000000E+00
  1 14 53 5.25088053E+01 2.50000000E+07 1.00000000E+00
  1 14 54 5.19359951E+01 2.50000000E+07 1.00000000E+00
  1 14 55 5.12806292E+01 2.50000000E+07 1.00000000E+00
  1 14 56 5.05523863E+01 2.50000000E+07 1.00000000E+00
  1 14 57 4.97515755E+01 2.50000000E+07 1.00000000E+00
  1 14 58 4.88674364E+01 2.50000000E+07 1.00000000E+00
  1 14 59 4.78901834E+01 2.50000000E+07 1.00000000E+00
  1 14 60 4.68070726E+01 2.50000000E+07 1.00000000E+00
  1 14 61 4.56015081E+01 2.50000000E+07 1.00000000E+00
  1 14 62 4.41595736E+01 2.50000000E+07 1.00000000E+00
  1 14 63 4.24479675E+01 2.50000000E+07 1.00000000E+00
  1 15 2 1.04792526E+02 2.50000000E+07 1.00000000E+00
  1 15 3 1.04571669E+02 2.50000000E+07 1.00000000E+00
  1 15 4 1.04037230E+02 2.50000000E+07 1.00000000E+00
  1 15 5 1.03200357E+02 2.50000000E+07 1.00000000E+00
  1 15 6 1.02014851E+02 2.50000000E+07 1.00000000E+00
  1 15 7 1.00432873E+02 2.50000000E+07 1.00000000E+00
  1 15 8 9.83526897E+01 2.50000000E+07 1.00000000E+00
  1 15 9 9.55574055E+01 2.50000000E+07 1.00000000E+00
  1 15 10 9.16786423E+01 2.50000000E+07 1.00000000E+00
  1 15 11 8.71934109E+01 2.50000000E+07 1.00000000E+00
  1 15 12 8.43611107E+01 2.50000000E+07 1.00000000E+00
  1 15 13 8.47070045E+01 2.50000000E+07 1.00000000E+00
  1 15 14 8.41777649E+01 2.50000000E+07 1.00000000E+00
  1 15 15 8.35739651E+01 2.50000000E+07 1.00000000E+00
  1 15 16 8.26943016E+01 2.50000000E+07 1.00000000E+00
  1 15 17 8.17786903E+01 2.50000000E+07 1.00000000E+00
  1 15 18 8.10407715E+01 2.50000000E+07 1.00000000E+00
  1 15 19 8.03431110E+01 2.50000000E+07 1.00000000E+00
  1 15 20 7.96708450E+01 2.50000000E+07 1.00000000E+00
  1 15 21 7.91041870E+01 2.50000000E+07 1.00000000E+00
  1 15 22 7.86204529E+01 2.50000000E+07 1.00000000E+00
  1 15 23 7.82421513E+01 2.50000000E+07 1.00000000E+00
  1 15 24 7.79090061E+01 2.50000000E+07 1.00000000E+00
  1 15 25 7.74493694E+01 2.50000000E+07 1.00000000E+00
  1 15 26 7.68052025E+01 2.50000000E+07 1.00000000E+00
  1 15 27 7.59163151E+01 2.50000000E+07 1.00000000E+00
  1 15 28 7.47608471E+01 2.50000000E+07 1.00000000E+00
  1 15 29 7.32567673E+01 2.50000000E+07 1.00000000E+00
  1 15 30 7.14510670E+01 2.50000000E+07 1.00000000E+00
  1 15 31 6.92825108E+01 2.50000000E+07 1.00000000E+00