# File generated by Flopy version 3.10.0.dev5 on 11/16/2025 at 20:50:30.
BEGIN options
END options

BEGIN dimensions
  MAXBOUND  169
END dimensions

BEGIN period  1
  1 14 11 8.81208248E+01 8.72848279E+04
  1 15 11 8.76934109E+01 9.22123034E+04
  1 15 12 8.48611107E+01 1.83550800E+05
  1 16 12 8.66504631E+01 2.31790401E+04
  1 16 13 8.42150192E+01 1.72563274E+05
  1 16 14 8.20833321E+01 1.65261971E+05
  1 16 15 8.10094852E+01 1.62684078E+05
  1 16 16 7.96881905E+01 1.60775608E+05
  1 16 17 7.83210621E+01 1.60007504E+05
  1 16 18 7.79174767E+01 1.58037315E+05
  1 16 19 7.71446285E+01 8.60307912E+03
  1 17 19 7.58812180E+01 1.47464046E+05
  1 17 20 7.39433270E+01 1.54132170E+05
  1 17 21 7.24806499E+01 1.52161748E+05
  1 17 22 7.12783413E+01 1.65857496E+05
  1 17 23 7.17806072E+01 8.23602484E+03
  1 18 23 6.96840477E+01 1.63785459E+05
  1 18 24 6.88390694E+01 1.05603335E+05
  1 19 24 6.85351906E+01 6.86556974E+04
  1 19 25 6.73543434E+01 1.26141476E+05
  1 20 25 6.68792953E+01 1.34229075E+05
  1 20 26 6.66131191E+01 3.43938758E+04
  1 21 26 6.54837914E+01 1.83952943E+05
  1 21 27 6.52821503E+01 4.67056764E+03
  1 22 27 6.40277777E+01 1.75396458E+05
  1 23 27 6.42344952E+01 5.09272294E+04
  1 23 28 6.27853308E+01 1.30822440E+05
  1 23 47 3.65378904E+01 8.07431506E+04
  1 23 48 3.51138391E+01 9.76388889E+04
  1 23 49 3.36988201E+01 8.90834726E+04
  1 23 59 2.13442092E+01 5.97076381E+04
  1 23 60 1.98743649E+01 7.44954093E+04
  1 23 61 1.84929438E+01 7.24018295E+04
  1 23 62 1.71235416E+01 7.04434551E+04
  1 23 63 1.57601845E+01 6.84783704E+04
  1 23 64 1.44117584E+01 6.68641452E+04
  1 23 65 1.31651700E+01 6.54047760E+04
  1 23 66 1.28425014E+01 4.92512422E+03
  1 24 28 6.26507702E+01 6.53775127E+04
  1 24 29 6.13540211E+01 1.47162375E+05
  1 24 30 6.01428490E+01 1.19016178E+05
  1 24 36 5.24452400E+01 5.54777730E+04
  1 24 37 5.04922085E+01 1.20785593E+05
  1 24 38 4.89329462E+01 1.17520404E+05
  1 24 39 4.75285082E+01 1.15568701E+05
  1 24 40 4.61272058E+01 1.13322590E+05
  1 24 41 4.47273407E+01 1.11355331E+05
  1 24 42 4.33222933E+01 1.09548187E+05
  1 24 43 4.19048681E+01 1.07616038E+05
  1 24 44 4.06706686E+01 1.06525981E+05
  1 24 45 4.02776241E+01 1.04561075E+05
  1 24 46 3.91115322E+01 1.02508528E+05
  1 24 47 3.85517063E+01 1.92810625E+04
  1 24 49 3.62197275E+01 6.88963272E+03
  1 24 50 3.39788017E+01 9.44304157E+04
  1 24 51 3.25595593E+01 9.21958502E+04
  1 24 52 3.11944103E+01 9.00491390E+04
  1 24 53 2.98337770E+01 8.79582742E+04
  1 24 54 2.84771619E+01 8.59739912E+04
  1 24 55 2.71196237E+01 8.40277778E+04
  1 24 56 2.57599263E+01 8.22418947E+04
  1 24 57 2.44167042E+01 8.03095988E+04
  1 24 58 2.31006970E+01 7.83610124E+04
  1 24 59 2.26501698E+01 1.72173497E+04
  1 24 66 1.15886066E+01 5.91518618E+04
  1 24 67 8.47222209E+00 6.26609979E+04
  1 24 68 7.59339857E+00 6.08030176E+04
  1 24 69 7.19789803E+00 4.82986991E+04
  1 25 30 6.05696974E+01 1.93980042E+04
  1 25 31 5.90280104E+01 1.32069761E+05
  1 25 32 5.72298203E+01 1.30011546E+05
  1 25 33 5.58148127E+01 1.26906959E+05
  1 25 34 5.44104576E+01 1.24960960E+05
  1 25 35 5.30177736E+01 1.24122556E+05
  1 25 36 5.18671675E+01 6.74385773E+04
  1 25 69 8.89151132E+00 1.19200002E+04
  1 25 70 5.18232083E+00 5.71194368E+04
  1 25 71 3.69474810E+00 5.37087937E+04
  1 25 72 2.41529757E+00 5.10919184E+04
  1 25 73 1.11111104E+00 4.91407626E+04
  1 24 27 6.41941757E+01 3.13005261E+04
  1 24 28 6.26507702E+01 1.48484869E+05
  1 24 29 6.13540211E+01 1.50751120E+04
  1 25 21 7.32076969E+01 4.15575695E+03
  1 25 22 7.13926201E+01 1.52325908E+05
  1 25 23 6.95833321E+01 1.50021771E+05
  1 25 24 6.83535976E+01 1.45751554E+05
  1 25 25 6.69805965E+01 1.43442386E+05
  1 25 26 6.57101822E+01 1.41390718E+05
  1 25 27 6.47245274E+01 1.09661284E+05
  1 26 18 7.73804722E+01 8.07500725E+04
  1 26 19 7.53572388E+01 1.61105148E+05
  1 26 20 7.38644485E+01 1.58774059E+05
  1 26 21 7.29351978E+01 1.50246598E+05
  1 27 16 7.97872353E+01 1.46787222E+05
  1 27 17 7.80864353E+01 1.70653796E+05
  1 27 18 7.72345581E+01 8.32973934E+04
  1 28 14 8.27825260E+01 1.20600349E+05
  1 28 15 8.08374805E+01 1.84365859E+05
  1 28 16 8.02831421E+01 3.49218937E+04
  1 29 11 8.85248680E+01 1.84111938E+04
  1 29 12 8.54896145E+01 1.78557719E+05
  1 29 13 8.36561241E+01 1.80799014E+05
  1 29 14 8.28889580E+01 6.30319936E+04
  1 30 11 8.77461166E+01 8.36833513E+04
  1 24 42 4.33222933E+01 6.32653131E+04
  1 24 43 4.19048681E+01 4.13605589E+04
  1 25 41 4.46012421E+01 1.28094361E+05
  1 25 42 4.44797831E+01 5.77841259E+04
  1 26 40 4.60708132E+01 9.26117166E+04
  1 26 41 4.62381964E+01 3.73853106E+04
  1 27 39 4.75273771E+01 7.21208191E+04
  1 27 40 4.67533245E+01 9.25473132E+04
  1 28 37 5.04458065E+01 4.40688506E+04
  1 28 38 4.87980499E+01 1.31916122E+05
  1 28 39 4.91204996E+01 7.20000245E+04
  1 29 35 5.34309196E+01 1.51419082E+04
  1 29 36 5.16982613E+01 1.38128024E+05
  1 29 37 5.13882809E+01 9.32922992E+04
  1 30 33 5.61991940E+01 4.21832485E+04
  1 30 34 5.44117346E+01 1.37159954E+05
  1 30 35 5.38315020E+01 1.24163647E+05
  1 31 31 5.88082714E+01 1.19443349E+05
  1 31 32 5.74485884E+01 1.39239648E+05
  1 31 33 5.72079639E+01 8.90535246E+04
  1 32 29 6.15183849E+01 9.42944891E+04
  1 32 30 6.00741796E+01 1.51095629E+05
  1 32 31 6.00176859E+01 2.82110396E+04
  1 33 27 6.47962837E+01 8.37664576E+04
  1 33 28 6.26388893E+01 1.54260463E+05
  1 33 29 6.23209076E+01 6.17396526E+04
  1 34 26 6.56389351E+01 1.20255981E+05
  1 34 27 6.51443119E+01 6.77661230E+04
  1 10 34 5.57697086E+01 1.20263534E+05
  1 11 34 5.73621235E+01 1.87856907E+04
  1 11 35 5.38353901E+01 1.27059442E+05
  1 12 35 5.40637398E+01 8.05857100E+04
  1 12 36 5.22447214E+01 8.75474601E+04
  1 13 36 5.20882530E+01 1.30833480E+05
  1 13 37 5.22115917E+01 5.84296777E+03
  1 14 37 5.01388893E+01 1.33624689E+05
  1 15 37 5.05632334E+01 1.15191332E+05
  1 15 38 5.02432137E+01 2.09674654E+04
  1 16 38 4.90212498E+01 1.50353151E+05
  1 17 38 4.99613333E+01 1.99940297E+04
  1 17 39 4.74990673E+01 1.26492308E+05
  1 17 40 4.67114563E+01 1.24356129E+05
  1 17 41 4.63913298E+01 5.23538019E+03
  1 18 41 4.48878765E+01 1.16633806E+05
  1 18 42 4.35885448E+01 1.18293901E+05
  1 18 43 4.33736162E+01 4.45633879E+04
  1 19 43 4.23825130E+01 6.87334740E+04
  1 19 44 4.05557337E+01 1.06826654E+05
  1 19 45 3.91369772E+01 1.04856202E+05
  1 19 46 3.76388893E+01 1.02483329E+05
  1 19 47 3.73888893E+01 1.00507933E+05
  1 19 48 3.65653267E+01 1.00833810E+05
  1 19 49 3.64435978E+01 1.95796142E+03
  1 20 49 3.36504517E+01 9.99351418E+04
  1 20 50 3.26728621E+01 1.05731415E+05
  1 20 51 3.33868265E+01 2.15497591E+04
  1 21 51 3.07712889E+01 9.94918352E+04
  1 21 52 3.07704816E+01 4.04992023E+04
  1 22 52 2.94119515E+01 7.38658457E+04
  1 22 53 2.81929421E+01 7.57293166E+04
  1 23 53 2.79966302E+01 3.16319136E+04
  1 23 54 2.65358334E+01 9.61198665E+04
  1 23 55 2.61826539E+01 5.83514979E+04
  1 24 55 2.71196237E+01 2.10065392E+04
END period  1

