# File generated by Flopy version 3.10.0.dev5 on 11/16/2025 at 20:50:30.
BEGIN options
  MEMORY_PRINT_OPTION  summary
END options

BEGIN timing
  TDIS6  sim.tdis
END timing

BEGIN models
  gwf6  gwf.nam  gwf
END models

BEGIN exchanges
END exchanges

BEGIN solutiongroup  1
  ims6  gwf.ims  gwf
END solutiongroup  1

