# File generated by Flopy version 3.10.0.dev5 on 11/16/2025 at 15:01:35.
BEGIN options
END options

BEGIN dimensions
  NPER  10
END dimensions

BEGIN perioddata
    3652.50000000  1       1.00000000
    3652.50000000  1       1.00000000
    3652.50000000  1       1.00000000
    3652.50000000  1       1.00000000
    3652.50000000  1       1.00000000
    3652.50000000  1       1.00000000
    3652.50000000  1       1.00000000
    3652.50000000  1       1.00000000
    3652.50000000  1       1.00000000
    3652.50000000  1       1.00000000
END perioddata

