# File generated by Flopy version 3.10.0.dev5 on 11/16/2025 at 20:50:30.
BEGIN options
END options

BEGIN dimensions
  NPER  10
END dimensions

BEGIN perioddata
     365.25000000  12       1.00000000
     365.25000000  12       1.00000000
     365.25000000  12       1.00000000
     365.25000000  12       1.00000000
     365.25000000  12       1.00000000
     365.25000000  12       1.00000000
     365.25000000  12       1.00000000
     365.25000000  12       1.00000000
     365.25000000  12       1.00000000
     365.25000000  12       1.00000000
END perioddata

